[General]
network = inet.simulations.CartagenaOPAL
**.maxTransmissionDuration = 4s
**.energyDetection = -120dBm

check-signals = false

#cmdenv-autoflush = true
#cmdenv-status-frequency = 10000000s
#cmdenv-express-mode = false
#cmdenv-output-file = cmd_env_log.txt
**.vector-recording = true

rng-class = "cMersenneTwister"
**.simulationType = "RDN"
**.rdnRays = 10000
**.useOpalReport = false

**.loRaGW[*].numUdpApps = 1
**.loRaGW[0].packetForwarder.localPort = 2000
**.loRaGW[0].packetForwarder.destPort = 1000
**.loRaGW[0].packetForwarder.destAddresses = "networkServer"
**.loRaGW[0].packetForwarder.indexNumber = 0

**.networkServer.numApps = 1
**.networkServer.**.evaluateADRinServer = true
**.networkServer.app[0].typename = "NetworkServerApp"
**.networkServer.app[0].destAddresses = "loRaGW[0]"
**.networkServer.app[0].destPort = 2000
**.networkServer.app[0].localPort = 1000
**.networkServer.app[0].adrMethod = ${"avg"}

**.numberOfPacketsToSend = 1 #${numberOfPAckets = 200..5000 step 200} #100 #obviously 0 means infinite number of packets
sim-time-limit = 5000s
warmup-period = 1s
simtime-resolution = -11
repeat = 1

**.timeToFirstPacket = exponential(15000s)
**.timeToNextPacket = exponential(15000s)
**.alohaChannelModel = false

**.constraintAreaMinX = 0m
**.constraintAreaMinY = 0m
**.constraintAreaMinZ = 0m
**.constraintAreaMaxX = 10000m
**.constraintAreaMaxY = 10000m
**.constraintAreaMaxZ = 10000m

#antenna type
#**.LoRaGWNic.radio.antennaType = "OpalLinearPolarizationAntenna"
#**.LoRaNic.radio.antennaType = "OpalLinearPolarizationAntenna"
**.LoRaGWNic.radio.antenna.typename = "OpalLinearPolarizationAntenna"
**.LoRaNic.radio.antenna.typename = "OpalLinearPolarizationAntenna"

#gateway features
**.numberOfGateways = 1
**.loRaGW[0].**.initialX = 1462.099m
**.loRaGW[0].**.initialY = 38.31m
**.loRaGW[0].**.initialZ = 618.0479m
**.LoRaGWNic.radio.iAmGateway = true
**.loRaGW[*].**.initFromDisplayString = false

#nodes features
**.loRaNodes[*].**initialLoRaSF = 12
**.loRaNodes[*].**initialLoRaTP = 14dBm
**.loRaNodes[*].**initialLoRaBW = 125 kHz
**.loRaNodes[*].**initialLoRaCR = 4
**.loRaNodes[*].**.initFromDisplayString = false
**.loRaNodes[*].**.evaluateADRinNode = true
**.loRaNodes[*].numApps = 1
**.loRaNodes[*].app[0].typename = "SimpleLoRaApp"

**.numberOfNodes = 551
**.loRaNodes[0].**.initialX = 1559.797974m + uniform(-0.20m, 0.20m)
**.loRaNodes[0].**.initialY = 23.40641975m + uniform(-0.20m, 0.20m)
**.loRaNodes[0].**.initialZ = 623.958313m + uniform(-0.20m, 0.20m)

**.loRaNodes[1].**.initialX = 1559.355957m + uniform(-0.20m, 0.20m)
**.loRaNodes[1].**.initialY = 23.35024071m + uniform(-0.20m, 0.20m)
**.loRaNodes[1].**.initialZ = 623.9487915m + uniform(-0.20m, 0.20m)

**.loRaNodes[2].**.initialX = 1555.387939m + uniform(-0.20m, 0.20m)
**.loRaNodes[2].**.initialY = 22.87117004m + uniform(-0.20m, 0.20m)
**.loRaNodes[2].**.initialZ = 623.6414185m + uniform(-0.20m, 0.20m)

**.loRaNodes[3].**.initialX = 1551.807007m + uniform(-0.20m, 0.20m)
**.loRaNodes[3].**.initialY = 22.78865051m + uniform(-0.20m, 0.20m)
**.loRaNodes[3].**.initialZ = 621.7880859m + uniform(-0.20m, 0.20m)

**.loRaNodes[4].**.initialX = 1547.739014m + uniform(-0.20m, 0.20m)
**.loRaNodes[4].**.initialY = 22.94396019m + uniform(-0.20m, 0.20m)
**.loRaNodes[4].**.initialZ = 617.9260864m + uniform(-0.20m, 0.20m)

**.loRaNodes[5].**.initialX = 1544.093018m + uniform(-0.20m, 0.20m)
**.loRaNodes[5].**.initialY = 23.51999092m + uniform(-0.20m, 0.20m)
**.loRaNodes[5].**.initialZ = 614.9611816m + uniform(-0.20m, 0.20m)

**.loRaNodes[6].**.initialX = 1541.244019m + uniform(-0.20m, 0.20m)
**.loRaNodes[6].**.initialY = 24.00777054m + uniform(-0.20m, 0.20m)
**.loRaNodes[6].**.initialZ = 611.9025879m + uniform(-0.20m, 0.20m)

**.loRaNodes[7].**.initialX = 1538.19397m + uniform(-0.20m, 0.20m)
**.loRaNodes[7].**.initialY = 24.43013m + uniform(-0.20m, 0.20m)
**.loRaNodes[7].**.initialZ = 609.949707m + uniform(-0.20m, 0.20m)

**.loRaNodes[8].**.initialX = 1534.875m + uniform(-0.20m, 0.20m)
**.loRaNodes[8].**.initialY = 24.86047935m + uniform(-0.20m, 0.20m)
**.loRaNodes[8].**.initialZ = 608.2130737m + uniform(-0.20m, 0.20m)

**.loRaNodes[9].**.initialX = 1531.166992m + uniform(-0.20m, 0.20m)
**.loRaNodes[9].**.initialY = 25.20076942m + uniform(-0.20m, 0.20m)
**.loRaNodes[9].**.initialZ = 608.1333008m + uniform(-0.20m, 0.20m)

**.loRaNodes[10].**.initialX = 1526.578979m + uniform(-0.20m, 0.20m)
**.loRaNodes[10].**.initialY = 25.56605911m + uniform(-0.20m, 0.20m)
**.loRaNodes[10].**.initialZ = 607.9235229m + uniform(-0.20m, 0.20m)

**.loRaNodes[11].**.initialX = 1521.491943m + uniform(-0.20m, 0.20m)
**.loRaNodes[11].**.initialY = 26.02457047m + uniform(-0.20m, 0.20m)
**.loRaNodes[11].**.initialZ = 606.2598877m + uniform(-0.20m, 0.20m)

**.loRaNodes[12].**.initialX = 1516.401978m + uniform(-0.20m, 0.20m)
**.loRaNodes[12].**.initialY = 26.41435051m + uniform(-0.20m, 0.20m)
**.loRaNodes[12].**.initialZ = 604.7072144m + uniform(-0.20m, 0.20m)

**.loRaNodes[13].**.initialX = 1500.187012m + uniform(-0.20m, 0.20m)
**.loRaNodes[13].**.initialY = 25.44223022m + uniform(-0.20m, 0.20m)
**.loRaNodes[13].**.initialZ = 603.026123m + uniform(-0.20m, 0.20m)

**.loRaNodes[14].**.initialX = 1497.814941m + uniform(-0.20m, 0.20m)
**.loRaNodes[14].**.initialY = 25.2441597m + uniform(-0.20m, 0.20m)
**.loRaNodes[14].**.initialZ = 606.5275269m + uniform(-0.20m, 0.20m)

**.loRaNodes[15].**.initialX = 1497.819946m + uniform(-0.20m, 0.20m)
**.loRaNodes[15].**.initialY = 24.90836906m + uniform(-0.20m, 0.20m)
**.loRaNodes[15].**.initialZ = 610.4130859m + uniform(-0.20m, 0.20m)

**.loRaNodes[16].**.initialX = 1499.802002m + uniform(-0.20m, 0.20m)
**.loRaNodes[16].**.initialY = 24.42885971m + uniform(-0.20m, 0.20m)
**.loRaNodes[16].**.initialZ = 616.7836304m + uniform(-0.20m, 0.20m)

**.loRaNodes[17].**.initialX = 1503.297974m + uniform(-0.20m, 0.20m)
**.loRaNodes[17].**.initialY = 23.37787056m + uniform(-0.20m, 0.20m)
**.loRaNodes[17].**.initialZ = 630.8464966m + uniform(-0.20m, 0.20m)

**.loRaNodes[18].**.initialX = 1522.675049m + uniform(-0.20m, 0.20m)
**.loRaNodes[18].**.initialY = 20.32353973m + uniform(-0.20m, 0.20m)
**.loRaNodes[18].**.initialZ = 653.9102173m + uniform(-0.20m, 0.20m)

**.loRaNodes[19].**.initialX = 1526.620972m + uniform(-0.20m, 0.20m)
**.loRaNodes[19].**.initialY = 22.3784008m + uniform(-0.20m, 0.20m)
**.loRaNodes[19].**.initialZ = 655.2163086m + uniform(-0.20m, 0.20m)

**.loRaNodes[20].**.initialX = 1529.229004m + uniform(-0.20m, 0.20m)
**.loRaNodes[20].**.initialY = 20.65646935m + uniform(-0.20m, 0.20m)
**.loRaNodes[20].**.initialZ = 657.159729m + uniform(-0.20m, 0.20m)

**.loRaNodes[21].**.initialX = 1527.109985m + uniform(-0.20m, 0.20m)
**.loRaNodes[21].**.initialY = 19.9617691m + uniform(-0.20m, 0.20m)
**.loRaNodes[21].**.initialZ = 661.2216187m + uniform(-0.20m, 0.20m)

**.loRaNodes[22].**.initialX = 1524.04895m + uniform(-0.20m, 0.20m)
**.loRaNodes[22].**.initialY = 19.5655899m + uniform(-0.20m, 0.20m)
**.loRaNodes[22].**.initialZ = 663.9310303m + uniform(-0.20m, 0.20m)

**.loRaNodes[23].**.initialX = 1520.204956m + uniform(-0.20m, 0.20m)
**.loRaNodes[23].**.initialY = 19.08551025m + uniform(-0.20m, 0.20m)
**.loRaNodes[23].**.initialZ = 666.0686035m + uniform(-0.20m, 0.20m)

**.loRaNodes[24].**.initialX = 1516.012939m + uniform(-0.20m, 0.20m)
**.loRaNodes[24].**.initialY = 18.60063934m + uniform(-0.20m, 0.20m)
**.loRaNodes[24].**.initialZ = 667.9766235m + uniform(-0.20m, 0.20m)

**.loRaNodes[25].**.initialX = 1512.133057m + uniform(-0.20m, 0.20m)
**.loRaNodes[25].**.initialY = 18.18011093m + uniform(-0.20m, 0.20m)
**.loRaNodes[25].**.initialZ = 671.7786255m + uniform(-0.20m, 0.20m)

**.loRaNodes[26].**.initialX = 1509.854004m + uniform(-0.20m, 0.20m)
**.loRaNodes[26].**.initialY = 19.50102997m + uniform(-0.20m, 0.20m)
**.loRaNodes[26].**.initialZ = 675.0599976m + uniform(-0.20m, 0.20m)

**.loRaNodes[27].**.initialX = 1506.650024m + uniform(-0.20m, 0.20m)
**.loRaNodes[27].**.initialY = 19.05480003m + uniform(-0.20m, 0.20m)
**.loRaNodes[27].**.initialZ = 680.3197021m + uniform(-0.20m, 0.20m)

**.loRaNodes[28].**.initialX = 1504.136963m + uniform(-0.20m, 0.20m)
**.loRaNodes[28].**.initialY = 17.54039001m + uniform(-0.20m, 0.20m)
**.loRaNodes[28].**.initialZ = 682.1528931m + uniform(-0.20m, 0.20m)

**.loRaNodes[29].**.initialX = 1500.605957m + uniform(-0.20m, 0.20m)
**.loRaNodes[29].**.initialY = 17.02787018m + uniform(-0.20m, 0.20m)
**.loRaNodes[29].**.initialZ = 686.1843872m + uniform(-0.20m, 0.20m)

**.loRaNodes[30].**.initialX = 1498.685059m + uniform(-0.20m, 0.20m)
**.loRaNodes[30].**.initialY = 16.69761086m + uniform(-0.20m, 0.20m)
**.loRaNodes[30].**.initialZ = 689.2515259m + uniform(-0.20m, 0.20m)

**.loRaNodes[31].**.initialX = 1495.959961m + uniform(-0.20m, 0.20m)
**.loRaNodes[31].**.initialY = 16.26692963m + uniform(-0.20m, 0.20m)
**.loRaNodes[31].**.initialZ = 692.7453003m + uniform(-0.20m, 0.20m)

**.loRaNodes[32].**.initialX = 1492.875m + uniform(-0.20m, 0.20m)
**.loRaNodes[32].**.initialY = 15.81198978m + uniform(-0.20m, 0.20m)
**.loRaNodes[32].**.initialZ = 696.5643921m + uniform(-0.20m, 0.20m)

**.loRaNodes[33].**.initialX = 1492.76001m + uniform(-0.20m, 0.20m)
**.loRaNodes[33].**.initialY = 15.85947037m + uniform(-0.20m, 0.20m)
**.loRaNodes[33].**.initialZ = 697.7830811m + uniform(-0.20m, 0.20m)

**.loRaNodes[34].**.initialX = 1492.755005m + uniform(-0.20m, 0.20m)
**.loRaNodes[34].**.initialY = 15.86732006m + uniform(-0.20m, 0.20m)
**.loRaNodes[34].**.initialZ = 698.0050049m + uniform(-0.20m, 0.20m)

**.loRaNodes[35].**.initialX = 1492.843994m + uniform(-0.20m, 0.20m)
**.loRaNodes[35].**.initialY = 15.86301041m + uniform(-0.20m, 0.20m)
**.loRaNodes[35].**.initialZ = 698.006897m + uniform(-0.20m, 0.20m)

**.loRaNodes[36].**.initialX = 1493.202026m + uniform(-0.20m, 0.20m)
**.loRaNodes[36].**.initialY = 15.83790016m + uniform(-0.20m, 0.20m)
**.loRaNodes[36].**.initialZ = 697.7924805m + uniform(-0.20m, 0.20m)

**.loRaNodes[37].**.initialX = 1493.291992m + uniform(-0.20m, 0.20m)
**.loRaNodes[37].**.initialY = 15.82966042m + uniform(-0.20m, 0.20m)
**.loRaNodes[37].**.initialZ = 697.6834717m + uniform(-0.20m, 0.20m)

**.loRaNodes[38].**.initialX = 1493.302002m + uniform(-0.20m, 0.20m)
**.loRaNodes[38].**.initialY = 15.81396008m + uniform(-0.20m, 0.20m)
**.loRaNodes[38].**.initialZ = 697.239624m + uniform(-0.20m, 0.20m)

**.loRaNodes[39].**.initialX = 1491.671997m + uniform(-0.20m, 0.20m)
**.loRaNodes[39].**.initialY = 15.7286396m + uniform(-0.20m, 0.20m)
**.loRaNodes[39].**.initialZ = 699.0917969m + uniform(-0.20m, 0.20m)

**.loRaNodes[40].**.initialX = 1487.791992m + uniform(-0.20m, 0.20m)
**.loRaNodes[40].**.initialY = 15.33946037m + uniform(-0.20m, 0.20m)
**.loRaNodes[40].**.initialZ = 702.8939209m + uniform(-0.20m, 0.20m)

**.loRaNodes[41].**.initialX = 1484.723999m + uniform(-0.20m, 0.20m)
**.loRaNodes[41].**.initialY = 15.05593014m + uniform(-0.20m, 0.20m)
**.loRaNodes[41].**.initialZ = 705.9362183m + uniform(-0.20m, 0.20m)

**.loRaNodes[42].**.initialX = 1479.692017m + uniform(-0.20m, 0.20m)
**.loRaNodes[42].**.initialY = 14.82213974m + uniform(-0.20m, 0.20m)
**.loRaNodes[42].**.initialZ = 709.9354248m + uniform(-0.20m, 0.20m)

**.loRaNodes[43].**.initialX = 1475.628052m + uniform(-0.20m, 0.20m)
**.loRaNodes[43].**.initialY = 14.06822014m + uniform(-0.20m, 0.20m)
**.loRaNodes[43].**.initialZ = 714.0665283m + uniform(-0.20m, 0.20m)

**.loRaNodes[44].**.initialX = 1469.661011m + uniform(-0.20m, 0.20m)
**.loRaNodes[44].**.initialY = 13.58753967m + uniform(-0.20m, 0.20m)
**.loRaNodes[44].**.initialZ = 716.3804932m + uniform(-0.20m, 0.20m)

**.loRaNodes[45].**.initialX = 1467.546997m + uniform(-0.20m, 0.20m)
**.loRaNodes[45].**.initialY = 13.35853004m + uniform(-0.20m, 0.20m)
**.loRaNodes[45].**.initialZ = 720.22052m + uniform(-0.20m, 0.20m)

**.loRaNodes[46].**.initialX = 1464.192017m + uniform(-0.20m, 0.20m)
**.loRaNodes[46].**.initialY = 12.9207201m + uniform(-0.20m, 0.20m)
**.loRaNodes[46].**.initialZ = 724.2557983m + uniform(-0.20m, 0.20m)

**.loRaNodes[47].**.initialX = 1462.074951m + uniform(-0.20m, 0.20m)
**.loRaNodes[47].**.initialY = 12.58100986m + uniform(-0.20m, 0.20m)
**.loRaNodes[47].**.initialZ = 728.2067871m + uniform(-0.20m, 0.20m)

**.loRaNodes[48].**.initialX = 1459.610962m + uniform(-0.20m, 0.20m)
**.loRaNodes[48].**.initialY = 12.30231953m + uniform(-0.20m, 0.20m)
**.loRaNodes[48].**.initialZ = 731.9282227m + uniform(-0.20m, 0.20m)

**.loRaNodes[49].**.initialX = 1456.866943m + uniform(-0.20m, 0.20m)
**.loRaNodes[49].**.initialY = 11.83551979m + uniform(-0.20m, 0.20m)
**.loRaNodes[49].**.initialZ = 736.3098145m + uniform(-0.20m, 0.20m)

**.loRaNodes[50].**.initialX = 1453.526001m + uniform(-0.20m, 0.20m)
**.loRaNodes[50].**.initialY = 11.3972702m + uniform(-0.20m, 0.20m)
**.loRaNodes[50].**.initialZ = 739.6793213m + uniform(-0.20m, 0.20m)

**.loRaNodes[51].**.initialX = 1449.381958m + uniform(-0.20m, 0.20m)
**.loRaNodes[51].**.initialY = 11.03361034m + uniform(-0.20m, 0.20m)
**.loRaNodes[51].**.initialZ = 743.4755859m + uniform(-0.20m, 0.20m)

**.loRaNodes[52].**.initialX = 1444.979004m + uniform(-0.20m, 0.20m)
**.loRaNodes[52].**.initialY = 10.89916992m + uniform(-0.20m, 0.20m)
**.loRaNodes[52].**.initialZ = 746.9334106m + uniform(-0.20m, 0.20m)

**.loRaNodes[53].**.initialX = 1440.500977m + uniform(-0.20m, 0.20m)
**.loRaNodes[53].**.initialY = 10.8591404m + uniform(-0.20m, 0.20m)
**.loRaNodes[53].**.initialZ = 749.8344116m + uniform(-0.20m, 0.20m)

**.loRaNodes[54].**.initialX = 1436.29895m + uniform(-0.20m, 0.20m)
**.loRaNodes[54].**.initialY = 11.4770298m + uniform(-0.20m, 0.20m)
**.loRaNodes[54].**.initialZ = 748.0789185m + uniform(-0.20m, 0.20m)

**.loRaNodes[55].**.initialX = 1433.714966m + uniform(-0.20m, 0.20m)
**.loRaNodes[55].**.initialY = 10.74542046m + uniform(-0.20m, 0.20m)
**.loRaNodes[55].**.initialZ = 745.0258789m + uniform(-0.20m, 0.20m)

**.loRaNodes[56].**.initialX = 1430.415039m + uniform(-0.20m, 0.20m)
**.loRaNodes[56].**.initialY = 10.67051983m + uniform(-0.20m, 0.20m)
**.loRaNodes[56].**.initialZ = 742.4016113m + uniform(-0.20m, 0.20m)

**.loRaNodes[57].**.initialX = 1426.936035m + uniform(-0.20m, 0.20m)
**.loRaNodes[57].**.initialY = 10.67033958m + uniform(-0.20m, 0.20m)
**.loRaNodes[57].**.initialZ = 739.8845215m + uniform(-0.20m, 0.20m)

**.loRaNodes[58].**.initialX = 1422.675049m + uniform(-0.20m, 0.20m)
**.loRaNodes[58].**.initialY = 10.67393017m + uniform(-0.20m, 0.20m)
**.loRaNodes[58].**.initialZ = 736.7954712m + uniform(-0.20m, 0.20m)

**.loRaNodes[59].**.initialX = 1417.416016m + uniform(-0.20m, 0.20m)
**.loRaNodes[59].**.initialY = 10.67866039m + uniform(-0.20m, 0.20m)
**.loRaNodes[59].**.initialZ = 734.906189m + uniform(-0.20m, 0.20m)

**.loRaNodes[60].**.initialX = 1414.719971m + uniform(-0.20m, 0.20m)
**.loRaNodes[60].**.initialY = 10.71924973m + uniform(-0.20m, 0.20m)
**.loRaNodes[60].**.initialZ = 732.9608765m + uniform(-0.20m, 0.20m)

**.loRaNodes[61].**.initialX = 1413.626953m + uniform(-0.20m, 0.20m)
**.loRaNodes[61].**.initialY = 10.79808044m + uniform(-0.20m, 0.20m)
**.loRaNodes[61].**.initialZ = 726.2766113m + uniform(-0.20m, 0.20m)

**.loRaNodes[62].**.initialX = 1409.857056m + uniform(-0.20m, 0.20m)
**.loRaNodes[62].**.initialY = 10.96757984m + uniform(-0.20m, 0.20m)
**.loRaNodes[62].**.initialZ = 716.7593994m + uniform(-0.20m, 0.20m)

**.loRaNodes[63].**.initialX = 1381.535034m + uniform(-0.20m, 0.20m)
**.loRaNodes[63].**.initialY = 10.8387804m + uniform(-0.20m, 0.20m)
**.loRaNodes[63].**.initialZ = 694.8358154m + uniform(-0.20m, 0.20m)

**.loRaNodes[64].**.initialX = 1377.175049m + uniform(-0.20m, 0.20m)
**.loRaNodes[64].**.initialY = 10.77295017m + uniform(-0.20m, 0.20m)
**.loRaNodes[64].**.initialZ = 692.1887207m + uniform(-0.20m, 0.20m)

**.loRaNodes[65].**.initialX = 1357.031982m + uniform(-0.20m, 0.20m)
**.loRaNodes[65].**.initialY = 10.41310978m + uniform(-0.20m, 0.20m)
**.loRaNodes[65].**.initialZ = 684.2067261m + uniform(-0.20m, 0.20m)

**.loRaNodes[66].**.initialX = 1352.937988m + uniform(-0.20m, 0.20m)
**.loRaNodes[66].**.initialY = 10.45952988m + uniform(-0.20m, 0.20m)
**.loRaNodes[66].**.initialZ = 689.7803955m + uniform(-0.20m, 0.20m)

**.loRaNodes[67].**.initialX = 1346.891968m + uniform(-0.20m, 0.20m)
**.loRaNodes[67].**.initialY = 10.03159046m + uniform(-0.20m, 0.20m)
**.loRaNodes[67].**.initialZ = 695.7562256m + uniform(-0.20m, 0.20m)

**.loRaNodes[68].**.initialX = 1343.430054m + uniform(-0.20m, 0.20m)
**.loRaNodes[68].**.initialY = 9.939181328m + uniform(-0.20m, 0.20m)
**.loRaNodes[68].**.initialZ = 700.6774292m + uniform(-0.20m, 0.20m)

**.loRaNodes[69].**.initialX = 1340.239014m + uniform(-0.20m, 0.20m)
**.loRaNodes[69].**.initialY = 9.834552765m + uniform(-0.20m, 0.20m)
**.loRaNodes[69].**.initialZ = 705.2714233m + uniform(-0.20m, 0.20m)

**.loRaNodes[70].**.initialX = 1336.295044m + uniform(-0.20m, 0.20m)
**.loRaNodes[70].**.initialY = 9.91309166m + uniform(-0.20m, 0.20m)
**.loRaNodes[70].**.initialZ = 707.9619141m + uniform(-0.20m, 0.20m)

**.loRaNodes[71].**.initialX = 1332.892944m + uniform(-0.20m, 0.20m)
**.loRaNodes[71].**.initialY = 9.740179062m + uniform(-0.20m, 0.20m)
**.loRaNodes[71].**.initialZ = 710.1090698m + uniform(-0.20m, 0.20m)

**.loRaNodes[72].**.initialX = 1325.891968m + uniform(-0.20m, 0.20m)
**.loRaNodes[72].**.initialY = 9.538241386m + uniform(-0.20m, 0.20m)
**.loRaNodes[72].**.initialZ = 715.2871704m + uniform(-0.20m, 0.20m)

**.loRaNodes[73].**.initialX = 1323.862061m + uniform(-0.20m, 0.20m)
**.loRaNodes[73].**.initialY = 9.453897476m + uniform(-0.20m, 0.20m)
**.loRaNodes[73].**.initialZ = 719.3510742m + uniform(-0.20m, 0.20m)

**.loRaNodes[74].**.initialX = 1321.776001m + uniform(-0.20m, 0.20m)
**.loRaNodes[74].**.initialY = 9.433981895m + uniform(-0.20m, 0.20m)
**.loRaNodes[74].**.initialZ = 721.8596191m + uniform(-0.20m, 0.20m)

**.loRaNodes[75].**.initialX = 1321.354004m + uniform(-0.20m, 0.20m)
**.loRaNodes[75].**.initialY = 9.410077095m + uniform(-0.20m, 0.20m)
**.loRaNodes[75].**.initialZ = 725.0698853m + uniform(-0.20m, 0.20m)

**.loRaNodes[76].**.initialX = 1319.902954m + uniform(-0.20m, 0.20m)
**.loRaNodes[76].**.initialY = 9.396290779m + uniform(-0.20m, 0.20m)
**.loRaNodes[76].**.initialZ = 726.8148804m + uniform(-0.20m, 0.20m)

**.loRaNodes[77].**.initialX = 1319.228027m + uniform(-0.20m, 0.20m)
**.loRaNodes[77].**.initialY = 9.376859665m + uniform(-0.20m, 0.20m)
**.loRaNodes[77].**.initialZ = 729.4647217m + uniform(-0.20m, 0.20m)

**.loRaNodes[78].**.initialX = 1322.368042m + uniform(-0.20m, 0.20m)
**.loRaNodes[78].**.initialY = 9.400159836m + uniform(-0.20m, 0.20m)
**.loRaNodes[78].**.initialZ = 735.4160156m + uniform(-0.20m, 0.20m)

**.loRaNodes[79].**.initialX = 1328.95105m + uniform(-0.20m, 0.20m)
**.loRaNodes[79].**.initialY = 9.274630547m + uniform(-0.20m, 0.20m)
**.loRaNodes[79].**.initialZ = 741.4412231m + uniform(-0.20m, 0.20m)

**.loRaNodes[80].**.initialX = 1334.355957m + uniform(-0.20m, 0.20m)
**.loRaNodes[80].**.initialY = 9.270443916m + uniform(-0.20m, 0.20m)
**.loRaNodes[80].**.initialZ = 744.7766724m + uniform(-0.20m, 0.20m)

**.loRaNodes[81].**.initialX = 1337.208984m + uniform(-0.20m, 0.20m)
**.loRaNodes[81].**.initialY = 9.223538399m + uniform(-0.20m, 0.20m)
**.loRaNodes[81].**.initialZ = 747.6134033m + uniform(-0.20m, 0.20m)

**.loRaNodes[82].**.initialX = 1340.373047m + uniform(-0.20m, 0.20m)
**.loRaNodes[82].**.initialY = 8.951822281m + uniform(-0.20m, 0.20m)
**.loRaNodes[82].**.initialZ = 752.4550171m + uniform(-0.20m, 0.20m)

**.loRaNodes[83].**.initialX = 1342.668945m + uniform(-0.20m, 0.20m)
**.loRaNodes[83].**.initialY = 8.401174545m + uniform(-0.20m, 0.20m)
**.loRaNodes[83].**.initialZ = 756.6118774m + uniform(-0.20m, 0.20m)

**.loRaNodes[84].**.initialX = 1345.73999m + uniform(-0.20m, 0.20m)
**.loRaNodes[84].**.initialY = 9.323348999m + uniform(-0.20m, 0.20m)
**.loRaNodes[84].**.initialZ = 757.565979m + uniform(-0.20m, 0.20m)

**.loRaNodes[85].**.initialX = 1350.630981m + uniform(-0.20m, 0.20m)
**.loRaNodes[85].**.initialY = 9.31901741m + uniform(-0.20m, 0.20m)
**.loRaNodes[85].**.initialZ = 760.1134033m + uniform(-0.20m, 0.20m)

**.loRaNodes[86].**.initialX = 1353.394043m + uniform(-0.20m, 0.20m)
**.loRaNodes[86].**.initialY = 9.331627846m + uniform(-0.20m, 0.20m)
**.loRaNodes[86].**.initialZ = 763.0592041m + uniform(-0.20m, 0.20m)

**.loRaNodes[87].**.initialX = 1379.275024m + uniform(-0.20m, 0.20m)
**.loRaNodes[87].**.initialY = 9.197833061m + uniform(-0.20m, 0.20m)
**.loRaNodes[87].**.initialZ = 783.4871216m + uniform(-0.20m, 0.20m)

**.loRaNodes[88].**.initialX = 1383.176025m + uniform(-0.20m, 0.20m)
**.loRaNodes[88].**.initialY = 9.687499046m + uniform(-0.20m, 0.20m)
**.loRaNodes[88].**.initialZ = 786.9014282m + uniform(-0.20m, 0.20m)

**.loRaNodes[89].**.initialX = 1383.728027m + uniform(-0.20m, 0.20m)
**.loRaNodes[89].**.initialY = 9.804731369m + uniform(-0.20m, 0.20m)
**.loRaNodes[89].**.initialZ = 790.0216064m + uniform(-0.20m, 0.20m)

**.loRaNodes[90].**.initialX = 1379.92395m + uniform(-0.20m, 0.20m)
**.loRaNodes[90].**.initialY = 9.4220047m + uniform(-0.20m, 0.20m)
**.loRaNodes[90].**.initialZ = 794.3803711m + uniform(-0.20m, 0.20m)

**.loRaNodes[91].**.initialX = 1376.927002m + uniform(-0.20m, 0.20m)
**.loRaNodes[91].**.initialY = 9.248975754m + uniform(-0.20m, 0.20m)
**.loRaNodes[91].**.initialZ = 798.201416m + uniform(-0.20m, 0.20m)

**.loRaNodes[92].**.initialX = 1373.464966m + uniform(-0.20m, 0.20m)
**.loRaNodes[92].**.initialY = 9.235327721m + uniform(-0.20m, 0.20m)
**.loRaNodes[92].**.initialZ = 803.1226196m + uniform(-0.20m, 0.20m)

**.loRaNodes[93].**.initialX = 1371.222046m + uniform(-0.20m, 0.20m)
**.loRaNodes[93].**.initialY = 9.206512451m + uniform(-0.20m, 0.20m)
**.loRaNodes[93].**.initialZ = 804.739624m + uniform(-0.20m, 0.20m)

**.loRaNodes[94].**.initialX = 1368.220947m + uniform(-0.20m, 0.20m)
**.loRaNodes[94].**.initialY = 9.130111694m + uniform(-0.20m, 0.20m)
**.loRaNodes[94].**.initialZ = 804.6749878m + uniform(-0.20m, 0.20m)

**.loRaNodes[95].**.initialX = 1366.749023m + uniform(-0.20m, 0.20m)
**.loRaNodes[95].**.initialY = 9.361314774m + uniform(-0.20m, 0.20m)
**.loRaNodes[95].**.initialZ = 811.5261841m + uniform(-0.20m, 0.20m)

**.loRaNodes[96].**.initialX = 1375.390991m + uniform(-0.20m, 0.20m)
**.loRaNodes[96].**.initialY = 9.979587555m + uniform(-0.20m, 0.20m)
**.loRaNodes[96].**.initialZ = 820.3710938m + uniform(-0.20m, 0.20m)

**.loRaNodes[97].**.initialX = 1382.854004m + uniform(-0.20m, 0.20m)
**.loRaNodes[97].**.initialY = 9.892303467m + uniform(-0.20m, 0.20m)
**.loRaNodes[97].**.initialZ = 822.4188232m + uniform(-0.20m, 0.20m)

**.loRaNodes[98].**.initialX = 1386.046997m + uniform(-0.20m, 0.20m)
**.loRaNodes[98].**.initialY = 10.4184103m + uniform(-0.20m, 0.20m)
**.loRaNodes[98].**.initialZ = 825.928772m + uniform(-0.20m, 0.20m)

**.loRaNodes[99].**.initialX = 1390.447021m + uniform(-0.20m, 0.20m)
**.loRaNodes[99].**.initialY = 12.58090973m + uniform(-0.20m, 0.20m)
**.loRaNodes[99].**.initialZ = 834.90448m + uniform(-0.20m, 0.20m)

**.loRaNodes[100].**.initialX = 1395.078003m + uniform(-0.20m, 0.20m)
**.loRaNodes[100].**.initialY = 11.72558022m + uniform(-0.20m, 0.20m)
**.loRaNodes[100].**.initialZ = 837.2244263m + uniform(-0.20m, 0.20m)

**.loRaNodes[101].**.initialX = 1406.86499m + uniform(-0.20m, 0.20m)
**.loRaNodes[101].**.initialY = 11.04854012m + uniform(-0.20m, 0.20m)
**.loRaNodes[101].**.initialZ = 843.5836182m + uniform(-0.20m, 0.20m)

**.loRaNodes[102].**.initialX = 1412.104004m + uniform(-0.20m, 0.20m)
**.loRaNodes[102].**.initialY = 11.23054028m + uniform(-0.20m, 0.20m)
**.loRaNodes[102].**.initialZ = 846.3607178m + uniform(-0.20m, 0.20m)

**.loRaNodes[103].**.initialX = 1417.782959m + uniform(-0.20m, 0.20m)
**.loRaNodes[103].**.initialY = 11.19032001m + uniform(-0.20m, 0.20m)
**.loRaNodes[103].**.initialZ = 849.2581177m + uniform(-0.20m, 0.20m)

**.loRaNodes[104].**.initialX = 1420.14502m + uniform(-0.20m, 0.20m)
**.loRaNodes[104].**.initialY = 11.64723015m + uniform(-0.20m, 0.20m)
**.loRaNodes[104].**.initialZ = 854.4155273m + uniform(-0.20m, 0.20m)

**.loRaNodes[105].**.initialX = 1424.769043m + uniform(-0.20m, 0.20m)
**.loRaNodes[105].**.initialY = 11.73128033m + uniform(-0.20m, 0.20m)
**.loRaNodes[105].**.initialZ = 861.1757812m + uniform(-0.20m, 0.20m)

**.loRaNodes[106].**.initialX = 1429.891968m + uniform(-0.20m, 0.20m)
**.loRaNodes[106].**.initialY = 11.7170496m + uniform(-0.20m, 0.20m)
**.loRaNodes[106].**.initialZ = 861.1749878m + uniform(-0.20m, 0.20m)

**.loRaNodes[107].**.initialX = 1433.550049m + uniform(-0.20m, 0.20m)
**.loRaNodes[107].**.initialY = 11.77888012m + uniform(-0.20m, 0.20m)
**.loRaNodes[107].**.initialZ = 863.585022m + uniform(-0.20m, 0.20m)

**.loRaNodes[108].**.initialX = 1437.562988m + uniform(-0.20m, 0.20m)
**.loRaNodes[108].**.initialY = 11.9240303m + uniform(-0.20m, 0.20m)
**.loRaNodes[108].**.initialZ = 865.8914795m + uniform(-0.20m, 0.20m)

**.loRaNodes[109].**.initialX = 1441.848022m + uniform(-0.20m, 0.20m)
**.loRaNodes[109].**.initialY = 12.05755043m + uniform(-0.20m, 0.20m)
**.loRaNodes[109].**.initialZ = 867.8709717m + uniform(-0.20m, 0.20m)

**.loRaNodes[110].**.initialX = 1447.79895m + uniform(-0.20m, 0.20m)
**.loRaNodes[110].**.initialY = 12.22148037m + uniform(-0.20m, 0.20m)
**.loRaNodes[110].**.initialZ = 870.4412231m + uniform(-0.20m, 0.20m)

**.loRaNodes[111].**.initialX = 1453.297974m + uniform(-0.20m, 0.20m)
**.loRaNodes[111].**.initialY = 12.33998013m + uniform(-0.20m, 0.20m)
**.loRaNodes[111].**.initialZ = 873.4459229m + uniform(-0.20m, 0.20m)

**.loRaNodes[112].**.initialX = 1456.793945m + uniform(-0.20m, 0.20m)
**.loRaNodes[112].**.initialY = 12.43778992m + uniform(-0.20m, 0.20m)
**.loRaNodes[112].**.initialZ = 875.1862793m + uniform(-0.20m, 0.20m)

**.loRaNodes[113].**.initialX = 1460.265991m + uniform(-0.20m, 0.20m)
**.loRaNodes[113].**.initialY = 12.80163002m + uniform(-0.20m, 0.20m)
**.loRaNodes[113].**.initialZ = 878.0363159m + uniform(-0.20m, 0.20m)

**.loRaNodes[114].**.initialX = 1464.220947m + uniform(-0.20m, 0.20m)
**.loRaNodes[114].**.initialY = 12.77482986m + uniform(-0.20m, 0.20m)
**.loRaNodes[114].**.initialZ = 878.8984985m + uniform(-0.20m, 0.20m)

**.loRaNodes[115].**.initialX = 1468.074951m + uniform(-0.20m, 0.20m)
**.loRaNodes[115].**.initialY = 12.80634022m + uniform(-0.20m, 0.20m)
**.loRaNodes[115].**.initialZ = 880.4246216m + uniform(-0.20m, 0.20m)

**.loRaNodes[116].**.initialX = 1472.130981m + uniform(-0.20m, 0.20m)
**.loRaNodes[116].**.initialY = 12.82092953m + uniform(-0.20m, 0.20m)
**.loRaNodes[116].**.initialZ = 880.7338867m + uniform(-0.20m, 0.20m)

**.loRaNodes[117].**.initialX = 1475.483032m + uniform(-0.20m, 0.20m)
**.loRaNodes[117].**.initialY = 13.00854015m + uniform(-0.20m, 0.20m)
**.loRaNodes[117].**.initialZ = 885.0244751m + uniform(-0.20m, 0.20m)

**.loRaNodes[118].**.initialX = 1477.910034m + uniform(-0.20m, 0.20m)
**.loRaNodes[118].**.initialY = 13.11439991m + uniform(-0.20m, 0.20m)
**.loRaNodes[118].**.initialZ = 887.1859741m + uniform(-0.20m, 0.20m)

**.loRaNodes[119].**.initialX = 1481.811035m + uniform(-0.20m, 0.20m)
**.loRaNodes[119].**.initialY = 13.47288036m + uniform(-0.20m, 0.20m)
**.loRaNodes[119].**.initialZ = 890.6002808m + uniform(-0.20m, 0.20m)

**.loRaNodes[120].**.initialX = 1485.452026m + uniform(-0.20m, 0.20m)
**.loRaNodes[120].**.initialY = 13.90351963m + uniform(-0.20m, 0.20m)
**.loRaNodes[120].**.initialZ = 893.7869873m + uniform(-0.20m, 0.20m)

**.loRaNodes[121].**.initialX = 1488.134033m + uniform(-0.20m, 0.20m)
**.loRaNodes[121].**.initialY = 14.35099983m + uniform(-0.20m, 0.20m)
**.loRaNodes[121].**.initialZ = 896.3980713m + uniform(-0.20m, 0.20m)

**.loRaNodes[122].**.initialX = 1490.292969m + uniform(-0.20m, 0.20m)
**.loRaNodes[122].**.initialY = 15.07135963m + uniform(-0.20m, 0.20m)
**.loRaNodes[122].**.initialZ = 898.6647949m + uniform(-0.20m, 0.20m)

**.loRaNodes[123].**.initialX = 1493.034058m + uniform(-0.20m, 0.20m)
**.loRaNodes[123].**.initialY = 17.04247093m + uniform(-0.20m, 0.20m)
**.loRaNodes[123].**.initialZ = 902.609314m + uniform(-0.20m, 0.20m)

**.loRaNodes[124].**.initialX = 1496.083984m + uniform(-0.20m, 0.20m)
**.loRaNodes[124].**.initialY = 18.48666954m + uniform(-0.20m, 0.20m)
**.loRaNodes[124].**.initialZ = 904.5620728m + uniform(-0.20m, 0.20m)

**.loRaNodes[125].**.initialX = 1501.02002m + uniform(-0.20m, 0.20m)
**.loRaNodes[125].**.initialY = 17.9650898m + uniform(-0.20m, 0.20m)
**.loRaNodes[125].**.initialZ = 909.1088867m + uniform(-0.20m, 0.20m)

**.loRaNodes[126].**.initialX = 1502.328003m + uniform(-0.20m, 0.20m)
**.loRaNodes[126].**.initialY = 17.96398926m + uniform(-0.20m, 0.20m)
**.loRaNodes[126].**.initialZ = 909.9141235m + uniform(-0.20m, 0.20m)

**.loRaNodes[127].**.initialX = 1503.702026m + uniform(-0.20m, 0.20m)
**.loRaNodes[127].**.initialY = 18.03797913m + uniform(-0.20m, 0.20m)
**.loRaNodes[127].**.initialZ = 911.7199097m + uniform(-0.20m, 0.20m)

**.loRaNodes[128].**.initialX = 1505.333984m + uniform(-0.20m, 0.20m)
**.loRaNodes[128].**.initialY = 18.25606918m + uniform(-0.20m, 0.20m)
**.loRaNodes[128].**.initialZ = 913.8643188m + uniform(-0.20m, 0.20m)

**.loRaNodes[129].**.initialX = 1504.672974m + uniform(-0.20m, 0.20m)
**.loRaNodes[129].**.initialY = 18.29392052m + uniform(-0.20m, 0.20m)
**.loRaNodes[129].**.initialZ = 915.8483276m + uniform(-0.20m, 0.20m)

**.loRaNodes[130].**.initialX = 1502.807007m + uniform(-0.20m, 0.20m)
**.loRaNodes[130].**.initialY = 18.50151062m + uniform(-0.20m, 0.20m)
**.loRaNodes[130].**.initialZ = 920.4707031m + uniform(-0.20m, 0.20m)

**.loRaNodes[131].**.initialX = 1501.633057m + uniform(-0.20m, 0.20m)
**.loRaNodes[131].**.initialY = 18.51251984m + uniform(-0.20m, 0.20m)
**.loRaNodes[131].**.initialZ = 921.666626m + uniform(-0.20m, 0.20m)

**.loRaNodes[132].**.initialX = 1500.697998m + uniform(-0.20m, 0.20m)
**.loRaNodes[132].**.initialY = 18.57452965m + uniform(-0.20m, 0.20m)
**.loRaNodes[132].**.initialZ = 924.0888062m + uniform(-0.20m, 0.20m)
