[General]
network = inet.simulations.Cartagena
**.maxTransmissionDuration = 4s
**.energyDetection = -120dBm

#cmdenv-autoflush = true
#cmdenv-status-frequency = 10000000s
#cmdenv-express-mode = false
#cmdenv-output-file = cmd_env_log.txt
**.vector-recording = true

rng-class = "cMersenneTwister"
**.loRaGW[*].numUdpApps = 1
**.loRaGW[0].packetForwarder.localPort = 2000
**.loRaGW[0].packetForwarder.destPort = 1000
**.loRaGW[0].packetForwarder.destAddresses = "networkServer"
**.loRaGW[0].packetForwarder.indexNumber = 0

**.networkServer.numApps = 1
**.networkServer.**.evaluateADRinServer = false
**.networkServer.app[0].typename = "NetworkServerApp"
**.networkServer.app[0].destAddresses = "loRaGW[0]"
**.networkServer.app[0].destPort = 2000
**.networkServer.app[0].localPort = 1000
**.networkServer.app[0].adrMethod = ${"avg"}

**.numberOfPacketsToSend = 1 #${numberOfPAckets = 200..5000 step 200} #100 #obviously 0 means infinite number of packets
sim-time-limit = 5000s
warmup-period = 1s
simtime-resolution = -11
repeat = 1

**.timeToFirstPacket = exponential(10000s)
**.timeToNextPacket = exponential(10000s)
**.alohaChannelModel = false

**.constraintAreaMinX = 0m
**.constraintAreaMinY = 0m
**.constraintAreaMinZ = 0m
**.constraintAreaMaxX = 10000m
**.constraintAreaMaxY = 10000m
**.constraintAreaMaxZ = 10000m

#antenna type
**.LoRaGWNic.radio.antennaType = "IsotropicAntenna"
**.LoRaNic.radio.antennaType = "IsotropicAntenna"

#gateway features
**.numberOfGateways = 1
**.loRaGW[0].**.initialX = 1462.099m
**.loRaGW[0].**.initialY = 38.31m
**.loRaGW[0].**.initialZ = 618.0479m
**.LoRaGWNic.radio.iAmGateway = true
**.loRaGW[*].**.initFromDisplayString = false

#nodes features
**.loRaNodes[*].**initialLoRaSF = 12
**.loRaNodes[*].**initialLoRaTP = 14dBm
**.loRaNodes[*].**initialLoRaBW = 125 kHz
**.loRaNodes[*].**initialLoRaCR = 4
**.loRaNodes[*].**.initFromDisplayString = false
**.loRaNodes[*].**.evaluateADRinNode = false
**.loRaNodes[*].numApps = 1
**.loRaNodes[*].app[0].typename = "SimpleLoRaApp"

**.numberOfNodes = 299

**.loRaNodes[0].**.initialX = 1708.553m
**.loRaNodes[0].**.initialY = 25.37794m
**.loRaNodes[0].**.initialZ = 669.7165m

**.loRaNodes[1].**.initialX = 1708.513m
**.loRaNodes[1].**.initialY = 25.46581m
**.loRaNodes[1].**.initialZ = 671.5659m

**.loRaNodes[2].**.initialX = 1723.188m
**.loRaNodes[2].**.initialY = 20.03343m
**.loRaNodes[2].**.initialZ = 673.7322m

**.loRaNodes[3].**.initialX = 1723.148m
**.loRaNodes[3].**.initialY = 19.48339m
**.loRaNodes[3].**.initialZ = 675.5816m

**.loRaNodes[4].**.initialX = 1737.702m
**.loRaNodes[4].**.initialY = 17.85535m
**.loRaNodes[4].**.initialZ = 683.2961m

**.loRaNodes[5].**.initialX = 1737.623m
**.loRaNodes[5].**.initialY = 18.15676m
**.loRaNodes[5].**.initialZ = 686.9948m

**.loRaNodes[6].**.initialX = 1737.583m
**.loRaNodes[6].**.initialY = 18.31003m
**.loRaNodes[6].**.initialZ = 688.8442m

**.loRaNodes[7].**.initialX = 1752.058m
**.loRaNodes[7].**.initialY = 18.6995m
**.loRaNodes[7].**.initialZ = 700.2574m

**.loRaNodes[8].**.initialX = 1824.193m
**.loRaNodes[8].**.initialY = 16.15644m
**.loRaNodes[8].**.initialZ = 768.4203m

**.loRaNodes[9].**.initialX = 1882.171m
**.loRaNodes[9].**.initialY = 16.51553m
**.loRaNodes[9].**.initialZ = 810.3754m

**.loRaNodes[10].**.initialX = 1855.534m
**.loRaNodes[10].**.initialY = 15.4363m
**.loRaNodes[10].**.initialZ = 680.2848m

**.loRaNodes[11].**.initialX = 1028.494m
**.loRaNodes[11].**.initialY = 33.6128m
**.loRaNodes[11].**.initialZ = 804.9636m

**.loRaNodes[12].**.initialX = 1028.494m
**.loRaNodes[12].**.initialY = 33.6128m
**.loRaNodes[12].**.initialZ = 804.9636m

**.loRaNodes[13].**.initialX = 1028.494m
**.loRaNodes[13].**.initialY = 33.6128m
**.loRaNodes[13].**.initialZ = 804.9636m

**.loRaNodes[14].**.initialX = 1028.494m
**.loRaNodes[14].**.initialY = 33.6128m
**.loRaNodes[14].**.initialZ = 804.9636m

**.loRaNodes[15].**.initialX = 1028.494m
**.loRaNodes[15].**.initialY = 33.6128m
**.loRaNodes[15].**.initialZ = 804.9636m

**.loRaNodes[16].**.initialX = 1028.494m
**.loRaNodes[16].**.initialY = 33.6128m
**.loRaNodes[16].**.initialZ = 804.9636m

**.loRaNodes[17].**.initialX = 1028.494m
**.loRaNodes[17].**.initialY = 33.6128m
**.loRaNodes[17].**.initialZ = 804.9636m

**.loRaNodes[18].**.initialX = 1028.494m
**.loRaNodes[18].**.initialY = 33.6128m
**.loRaNodes[18].**.initialZ = 804.9636m

**.loRaNodes[19].**.initialX = 1028.494m
**.loRaNodes[19].**.initialY = 33.6128m
**.loRaNodes[19].**.initialZ = 804.9636m

**.loRaNodes[20].**.initialX = 1028.494m
**.loRaNodes[20].**.initialY = 33.6128m
**.loRaNodes[20].**.initialZ = 804.9636m

**.loRaNodes[21].**.initialX = 1028.494m
**.loRaNodes[21].**.initialY = 33.6128m
**.loRaNodes[21].**.initialZ = 804.9636m

**.loRaNodes[22].**.initialX = 1028.494m
**.loRaNodes[22].**.initialY = 33.6128m
**.loRaNodes[22].**.initialZ = 804.9636m

**.loRaNodes[23].**.initialX = 1028.494m
**.loRaNodes[23].**.initialY = 33.6128m
**.loRaNodes[23].**.initialZ = 804.9636m

**.loRaNodes[24].**.initialX = 1028.494m
**.loRaNodes[24].**.initialY = 33.6128m
**.loRaNodes[24].**.initialZ = 804.9636m

**.loRaNodes[25].**.initialX = 1028.494m
**.loRaNodes[25].**.initialY = 33.6128m
**.loRaNodes[25].**.initialZ = 804.9636m

**.loRaNodes[26].**.initialX = 1358.041m
**.loRaNodes[26].**.initialY = 44.20044m
**.loRaNodes[26].**.initialZ = 540.0588m

**.loRaNodes[27].**.initialX = 1358.041m
**.loRaNodes[27].**.initialY = 44.20044m
**.loRaNodes[27].**.initialZ = 540.0588m

**.loRaNodes[28].**.initialX = 1358.041m
**.loRaNodes[28].**.initialY = 44.20044m
**.loRaNodes[28].**.initialZ = 540.0588m

**.loRaNodes[29].**.initialX = 1358.041m
**.loRaNodes[29].**.initialY = 44.20044m
**.loRaNodes[29].**.initialZ = 540.0588m

**.loRaNodes[30].**.initialX = 1358.041m
**.loRaNodes[30].**.initialY = 44.20044m
**.loRaNodes[30].**.initialZ = 540.0588m

**.loRaNodes[31].**.initialX = 1358.041m
**.loRaNodes[31].**.initialY = 44.20044m
**.loRaNodes[31].**.initialZ = 540.0588m

**.loRaNodes[32].**.initialX = 1358.001m
**.loRaNodes[32].**.initialY = 42.8457m
**.loRaNodes[32].**.initialZ = 541.9081m

**.loRaNodes[33].**.initialX = 1358.001m
**.loRaNodes[33].**.initialY = 42.8457m
**.loRaNodes[33].**.initialZ = 541.9081m

**.loRaNodes[34].**.initialX = 1358.001m
**.loRaNodes[34].**.initialY = 42.8457m
**.loRaNodes[34].**.initialZ = 541.9081m

**.loRaNodes[35].**.initialX = 1358.041m
**.loRaNodes[35].**.initialY = 44.20044m
**.loRaNodes[35].**.initialZ = 540.0588m

**.loRaNodes[36].**.initialX = 1358.041m
**.loRaNodes[36].**.initialY = 44.20044m
**.loRaNodes[36].**.initialZ = 540.0588m

**.loRaNodes[37].**.initialX = 1358.041m
**.loRaNodes[37].**.initialY = 44.20044m
**.loRaNodes[37].**.initialZ = 540.0588m

**.loRaNodes[38].**.initialX = 1402.462m
**.loRaNodes[38].**.initialY = 47.65255m
**.loRaNodes[38].**.initialZ = 528.0623m

**.loRaNodes[39].**.initialX = 1402.502m
**.loRaNodes[39].**.initialY = 48.70436m
**.loRaNodes[39].**.initialZ = 526.2129m

**.loRaNodes[40].**.initialX = 1402.502m
**.loRaNodes[40].**.initialY = 48.70436m
**.loRaNodes[40].**.initialZ = 526.2129m

**.loRaNodes[41].**.initialX = 1402.502m
**.loRaNodes[41].**.initialY = 48.70436m
**.loRaNodes[41].**.initialZ = 526.2129m

**.loRaNodes[42].**.initialX = 1402.502m
**.loRaNodes[42].**.initialY = 48.70436m
**.loRaNodes[42].**.initialZ = 526.2129m

**.loRaNodes[43].**.initialX = 1402.502m
**.loRaNodes[43].**.initialY = 48.70436m
**.loRaNodes[43].**.initialZ = 526.2129m

**.loRaNodes[44].**.initialX = 1402.502m
**.loRaNodes[44].**.initialY = 48.70436m
**.loRaNodes[44].**.initialZ = 526.2129m

**.loRaNodes[45].**.initialX = 1402.502m
**.loRaNodes[45].**.initialY = 48.70436m
**.loRaNodes[45].**.initialZ = 526.2129m

**.loRaNodes[46].**.initialX = 1402.462m
**.loRaNodes[46].**.initialY = 47.65255m
**.loRaNodes[46].**.initialZ = 528.0623m

**.loRaNodes[47].**.initialX = 1402.502m
**.loRaNodes[47].**.initialY = 48.70436m
**.loRaNodes[47].**.initialZ = 526.2129m

**.loRaNodes[48].**.initialX = 1402.541m
**.loRaNodes[48].**.initialY = 49.65421m
**.loRaNodes[48].**.initialZ = 524.3635m

**.loRaNodes[49].**.initialX = 1402.581m
**.loRaNodes[49].**.initialY = 50.58991m
**.loRaNodes[49].**.initialZ = 522.5142m

**.loRaNodes[50].**.initialX = 1388.265m
**.loRaNodes[50].**.initialY = 53.29566m
**.loRaNodes[50].**.initialZ = 503.704m

**.loRaNodes[51].**.initialX = 1373.312m
**.loRaNodes[51].**.initialY = 53.45962m
**.loRaNodes[51].**.initialZ = 514.4839m

**.loRaNodes[52].**.initialX = 1373.312m
**.loRaNodes[52].**.initialY = 53.45962m
**.loRaNodes[52].**.initialZ = 514.4839m

**.loRaNodes[53].**.initialX = 1373.312m
**.loRaNodes[53].**.initialY = 53.45962m
**.loRaNodes[53].**.initialZ = 514.4839m

**.loRaNodes[54].**.initialX = 1388.026m
**.loRaNodes[54].**.initialY = 52.98377m
**.loRaNodes[54].**.initialZ = 514.8003m

**.loRaNodes[55].**.initialX = 1388.066m
**.loRaNodes[55].**.initialY = 53.04892m
**.loRaNodes[55].**.initialZ = 512.9509m

**.loRaNodes[56].**.initialX = 1388.066m
**.loRaNodes[56].**.initialY = 53.04892m
**.loRaNodes[56].**.initialZ = 512.9509m

**.loRaNodes[57].**.initialX = 1388.066m
**.loRaNodes[57].**.initialY = 53.04892m
**.loRaNodes[57].**.initialZ = 512.9509m

**.loRaNodes[58].**.initialX = 1388.026m
**.loRaNodes[58].**.initialY = 52.98377m
**.loRaNodes[58].**.initialZ = 514.8003m

**.loRaNodes[59].**.initialX = 1387.986m
**.loRaNodes[59].**.initialY = 52.91863m
**.loRaNodes[59].**.initialZ = 516.6497m

**.loRaNodes[60].**.initialX = 1387.946m
**.loRaNodes[60].**.initialY = 52.88314m
**.loRaNodes[60].**.initialZ = 518.499m

**.loRaNodes[61].**.initialX = 1387.986m
**.loRaNodes[61].**.initialY = 52.91863m
**.loRaNodes[61].**.initialZ = 516.6497m

**.loRaNodes[62].**.initialX = 1414.432m
**.loRaNodes[62].**.initialY = 18.32355m
**.loRaNodes[62].**.initialZ = 655.9853m

**.loRaNodes[63].**.initialX = 1414.432m
**.loRaNodes[63].**.initialY = 18.32355m
**.loRaNodes[63].**.initialZ = 655.9853m

**.loRaNodes[64].**.initialX = 1414.432m
**.loRaNodes[64].**.initialY = 18.32355m
**.loRaNodes[64].**.initialZ = 655.9853m

**.loRaNodes[65].**.initialX = 1414.472m
**.loRaNodes[65].**.initialY = 18.43832m
**.loRaNodes[65].**.initialZ = 654.1359m

**.loRaNodes[66].**.initialX = 1414.511m
**.loRaNodes[66].**.initialY = 18.4635m
**.loRaNodes[66].**.initialZ = 652.2866m

**.loRaNodes[67].**.initialX = 1414.551m
**.loRaNodes[67].**.initialY = 18.48867m
**.loRaNodes[67].**.initialZ = 650.4372m

**.loRaNodes[68].**.initialX = 1414.511m
**.loRaNodes[68].**.initialY = 18.4635m
**.loRaNodes[68].**.initialZ = 652.2866m

**.loRaNodes[69].**.initialX = 1395.94m
**.loRaNodes[69].**.initialY = 10.2442m
**.loRaNodes[69].**.initialZ = 831.3593m

**.loRaNodes[70].**.initialX = 1395.9m
**.loRaNodes[70].**.initialY = 10.54072m
**.loRaNodes[70].**.initialZ = 833.2086m

**.loRaNodes[71].**.initialX = 1381.266m
**.loRaNodes[71].**.initialY = 11.46299m
**.loRaNodes[71].**.initialZ = 829.1935m

**.loRaNodes[72].**.initialX = 1431.691m
**.loRaNodes[72].**.initialY = 34.89276m
**.loRaNodes[72].**.initialZ = 537.942m

**.loRaNodes[73].**.initialX = 1431.691m
**.loRaNodes[73].**.initialY = 34.89276m
**.loRaNodes[73].**.initialZ = 537.942m

**.loRaNodes[74].**.initialX = 1431.691m
**.loRaNodes[74].**.initialY = 34.89276m
**.loRaNodes[74].**.initialZ = 537.942m

**.loRaNodes[75].**.initialX = 1431.691m
**.loRaNodes[75].**.initialY = 34.89276m
**.loRaNodes[75].**.initialZ = 537.942m

**.loRaNodes[76].**.initialX = 1431.691m
**.loRaNodes[76].**.initialY = 34.89276m
**.loRaNodes[76].**.initialZ = 537.942m

**.loRaNodes[77].**.initialX = 1431.691m
**.loRaNodes[77].**.initialY = 34.89276m
**.loRaNodes[77].**.initialZ = 537.942m

**.loRaNodes[78].**.initialX = 1431.691m
**.loRaNodes[78].**.initialY = 34.89276m
**.loRaNodes[78].**.initialZ = 537.942m

**.loRaNodes[79].**.initialX = 1431.691m
**.loRaNodes[79].**.initialY = 34.89276m
**.loRaNodes[79].**.initialZ = 537.942m

**.loRaNodes[80].**.initialX = 1431.691m
**.loRaNodes[80].**.initialY = 34.89276m
**.loRaNodes[80].**.initialZ = 537.942m

**.loRaNodes[81].**.initialX = 1431.652m
**.loRaNodes[81].**.initialY = 32.40884m
**.loRaNodes[81].**.initialZ = 539.7913m

**.loRaNodes[82].**.initialX = 1431.652m
**.loRaNodes[82].**.initialY = 32.40884m
**.loRaNodes[82].**.initialZ = 539.7913m

**.loRaNodes[83].**.initialX = 1431.652m
**.loRaNodes[83].**.initialY = 32.40884m
**.loRaNodes[83].**.initialZ = 539.7913m

**.loRaNodes[84].**.initialX = 1431.652m
**.loRaNodes[84].**.initialY = 32.40884m
**.loRaNodes[84].**.initialZ = 539.7913m

**.loRaNodes[85].**.initialX = 1431.612m
**.loRaNodes[85].**.initialY = 30.78476m
**.loRaNodes[85].**.initialZ = 541.6407m

**.loRaNodes[86].**.initialX = 1463.029m
**.loRaNodes[86].**.initialY = 34.97985m
**.loRaNodes[86].**.initialZ = 449.8051m

**.loRaNodes[87].**.initialX = 1463.029m
**.loRaNodes[87].**.initialY = 34.97985m
**.loRaNodes[87].**.initialZ = 449.8051m

**.loRaNodes[88].**.initialX = 1463.029m
**.loRaNodes[88].**.initialY = 34.97985m
**.loRaNodes[88].**.initialZ = 449.8051m

**.loRaNodes[89].**.initialX = 1463.069m
**.loRaNodes[89].**.initialY = 34.6506m
**.loRaNodes[89].**.initialZ = 447.9557m

**.loRaNodes[90].**.initialX = 1463.029m
**.loRaNodes[90].**.initialY = 34.97985m
**.loRaNodes[90].**.initialZ = 449.8051m

**.loRaNodes[91].**.initialX = 1463.029m
**.loRaNodes[91].**.initialY = 34.97985m
**.loRaNodes[91].**.initialZ = 449.8051m

**.loRaNodes[92].**.initialX = 1463.029m
**.loRaNodes[92].**.initialY = 34.97985m
**.loRaNodes[92].**.initialZ = 449.8051m

**.loRaNodes[93].**.initialX = 1463.029m
**.loRaNodes[93].**.initialY = 34.97985m
**.loRaNodes[93].**.initialZ = 449.8051m

**.loRaNodes[94].**.initialX = 1463.029m
**.loRaNodes[94].**.initialY = 34.97985m
**.loRaNodes[94].**.initialZ = 449.8051m

**.loRaNodes[95].**.initialX = 1463.029m
**.loRaNodes[95].**.initialY = 34.97985m
**.loRaNodes[95].**.initialZ = 449.8051m

**.loRaNodes[96].**.initialX = 1463.029m
**.loRaNodes[96].**.initialY = 34.97985m
**.loRaNodes[96].**.initialZ = 449.8051m

**.loRaNodes[97].**.initialX = 1463.029m
**.loRaNodes[97].**.initialY = 34.97985m
**.loRaNodes[97].**.initialZ = 449.8051m

**.loRaNodes[98].**.initialX = 1463.069m
**.loRaNodes[98].**.initialY = 34.6506m
**.loRaNodes[98].**.initialZ = 447.9557m

**.loRaNodes[99].**.initialX = 1463.069m
**.loRaNodes[99].**.initialY = 34.6506m
**.loRaNodes[99].**.initialZ = 447.9557m

**.loRaNodes[100].**.initialX = 1448.434m
**.loRaNodes[100].**.initialY = 47.41198m
**.loRaNodes[100].**.initialZ = 443.9405m

**.loRaNodes[101].**.initialX = 1617.8m
**.loRaNodes[101].**.initialY = 26.02801m
**.loRaNodes[101].**.initialZ = 782.4764m

**.loRaNodes[102].**.initialX = 1602.37m
**.loRaNodes[102].**.initialY = 20.26019m
**.loRaNodes[102].**.initialZ = 815.4483m

**.loRaNodes[103].**.initialX = 1513.968m
**.loRaNodes[103].**.initialY = 12.26089m
**.loRaNodes[103].**.initialZ = 819.0963m

**.loRaNodes[104].**.initialX = 1468.912m
**.loRaNodes[104].**.initialY = 11.4048m
**.loRaNodes[104].**.initialZ = 860.6822m

**.loRaNodes[105].**.initialX = 1439.962m
**.loRaNodes[105].**.initialY = 10.22563m
**.loRaNodes[105].**.initialZ = 837.8567m

**.loRaNodes[106].**.initialX = 1395.94m
**.loRaNodes[106].**.initialY = 10.2442m
**.loRaNodes[106].**.initialZ = 831.3593m

**.loRaNodes[107].**.initialX = 1411.728m
**.loRaNodes[107].**.initialY = 9.075443m
**.loRaNodes[107].**.initialZ = 781.7426m

**.loRaNodes[108].**.initialX = 1441.792m
**.loRaNodes[108].**.initialY = 10.8654m
**.loRaNodes[108].**.initialZ = 752.7856m

**.loRaNodes[109].**.initialX = 1471.538m
**.loRaNodes[109].**.initialY = 12.67075m
**.loRaNodes[109].**.initialZ = 738.6236m

**.loRaNodes[110].**.initialX = 1501.88m
**.loRaNodes[110].**.initialY = 16.69077m
**.loRaNodes[110].**.initialZ = 696.7211m

**.loRaNodes[111].**.initialX = 1547.376m
**.loRaNodes[111].**.initialY = 22.19481m
**.loRaNodes[111].**.initialZ = 634.7924m

**.loRaNodes[112].**.initialX = 1533.776m
**.loRaNodes[112].**.initialY = 27.07964m
**.loRaNodes[112].**.initialZ = 582.6933m

**.loRaNodes[113].**.initialX = 1519.221m
**.loRaNodes[113].**.initialY = 28.01937m
**.loRaNodes[113].**.initialZ = 574.9792m

**.loRaNodes[114].**.initialX = 1459.29m
**.loRaNodes[114].**.initialY = 23.01464m
**.loRaNodes[114].**.initialZ = 623.646m

**.loRaNodes[115].**.initialX = 1428.629m
**.loRaNodes[115].**.initialY = 15.85552m
**.loRaNodes[115].**.initialZ = 680.3436m

**.loRaNodes[116].**.initialX = 1398.445m
**.loRaNodes[116].**.initialY = 11.16411m
**.loRaNodes[116].**.initialZ = 714.8488m

**.loRaNodes[117].**.initialX = 1369.415m
**.loRaNodes[117].**.initialY = 10.82737m
**.loRaNodes[117].**.initialZ = 695.7224m

**.loRaNodes[118].**.initialX = 1370.489m
**.loRaNodes[118].**.initialY = 10.57025m
**.loRaNodes[118].**.initialZ = 645.7893m

**.loRaNodes[119].**.initialX = 1400.434m
**.loRaNodes[119].**.initialY = 9.86533m
**.loRaNodes[119].**.initialZ = 622.3802m

**.loRaNodes[120].**.initialX = 1430.578m
**.loRaNodes[120].**.initialY = 19.09765m
**.loRaNodes[120].**.initialZ = 589.7244m

**.loRaNodes[121].**.initialX = 1431.373m
**.loRaNodes[121].**.initialY = 15.26654m
**.loRaNodes[121].**.initialZ = 552.7369m

**.loRaNodes[122].**.initialX = 1461.677m
**.loRaNodes[122].**.initialY = 8.465462m
**.loRaNodes[122].**.initialZ = 512.6837m

**.loRaNodes[123].**.initialX = 1476.709m
**.loRaNodes[123].**.initialY = 8.143896m
**.loRaNodes[123].**.initialZ = 498.2052m

**.loRaNodes[124].**.initialX = 1521.728m
**.loRaNodes[124].**.initialY = 9.648803m
**.loRaNodes[124].**.initialZ = 458.4688m

**.loRaNodes[125].**.initialX = 1537.158m
**.loRaNodes[125].**.initialY = 9.055398m
**.loRaNodes[125].**.initialZ = 425.4967m

**.loRaNodes[126].**.initialX = 1552.828m
**.loRaNodes[126].**.initialY = 10.07696m
**.loRaNodes[126].**.initialZ = 381.4284m

**.loRaNodes[127].**.initialX = 1568.776m
**.loRaNodes[127].**.initialY = 7.754698m
**.loRaNodes[127].**.initialZ = 324.4146m

**.loRaNodes[128].**.initialX = 1569.055m
**.loRaNodes[128].**.initialY = 4.746131m
**.loRaNodes[128].**.initialZ = 311.4689m

**.loRaNodes[129].**.initialX = 1629.347m
**.loRaNodes[129].**.initialY = 4.283744m
**.loRaNodes[129].**.initialZ = 246.1585m

**.loRaNodes[130].**.initialX = 1732.111m
**.loRaNodes[130].**.initialY = 4.568329m
**.loRaNodes[130].**.initialZ = 259.4728m

**.loRaNodes[131].**.initialX = 1791.17m
**.loRaNodes[131].**.initialY = 4.251333m
**.loRaNodes[131].**.initialZ = 251.494m

**.loRaNodes[132].**.initialX = 1820.998m
**.loRaNodes[132].**.initialY = 4.102349m
**.loRaNodes[132].**.initialZ = 233.6345m

**.loRaNodes[133].**.initialX = 1792.006m
**.loRaNodes[133].**.initialY = 4.212977m
**.loRaNodes[133].**.initialZ = 212.6572m

**.loRaNodes[134].**.initialX = 1748.021m
**.loRaNodes[134].**.initialY = 4.204553m
**.loRaNodes[134].**.initialZ = 204.3086m

**.loRaNodes[135].**.initialX = 1703.917m
**.loRaNodes[135].**.initialY = 4.202425m
**.loRaNodes[135].**.initialZ = 201.5084m

**.loRaNodes[136].**.initialX = 1659.812m
**.loRaNodes[136].**.initialY = 4.210189m
**.loRaNodes[136].**.initialZ = 198.7084m

**.loRaNodes[137].**.initialX = 1615.747m
**.loRaNodes[137].**.initialY = 4.199909m
**.loRaNodes[137].**.initialZ = 194.0593m

**.loRaNodes[138].**.initialX = 1571.722m
**.loRaNodes[138].**.initialY = 3.991868m
**.loRaNodes[138].**.initialZ = 187.5611m

**.loRaNodes[139].**.initialX = 1527.617m
**.loRaNodes[139].**.initialY = 4.143795m
**.loRaNodes[139].**.initialZ = 184.7618m

**.loRaNodes[140].**.initialX = 1483.552m
**.loRaNodes[140].**.initialY = 4.125868m
**.loRaNodes[140].**.initialZ = 180.1134m

**.loRaNodes[141].**.initialX = 1439.407m
**.loRaNodes[141].**.initialY = 4.101513m
**.loRaNodes[141].**.initialZ = 179.164m

**.loRaNodes[142].**.initialX = 1395.342m
**.loRaNodes[142].**.initialY = 4.062649m
**.loRaNodes[142].**.initialZ = 174.516m

**.loRaNodes[143].**.initialX = 1365.793m
**.loRaNodes[143].**.initialY = 4.10852m
**.loRaNodes[143].**.initialZ = 179.4315m

**.loRaNodes[144].**.initialX = 1320.337m
**.loRaNodes[144].**.initialY = 4.222605m
**.loRaNodes[144].**.initialZ = 239.5119m

**.loRaNodes[145].**.initialX = 1334.455m
**.loRaNodes[145].**.initialY = 4.664297m
**.loRaNodes[145].**.initialZ = 267.5687m

**.loRaNodes[146].**.initialX = 1319.264m
**.loRaNodes[146].**.initialY = 12.70499m
**.loRaNodes[146].**.initialZ = 289.4449m

**.loRaNodes[147].**.initialX = 1245.531m
**.loRaNodes[147].**.initialY = 13.60302m
**.loRaNodes[147].**.initialZ = 295.2615m

**.loRaNodes[148].**.initialX = 1239.81m
**.loRaNodes[148].**.initialY = 10.40004m
**.loRaNodes[148].**.initialZ = 561.5709m

**.loRaNodes[149].**.initialX = 1252.657m
**.loRaNodes[149].**.initialY = 8.39717m
**.loRaNodes[149].**.initialZ = 648.8075m

**.loRaNodes[150].**.initialX = 1237.268m
**.loRaNodes[150].**.initialY = 8.11622m
**.loRaNodes[150].**.initialZ = 679.9307m

**.loRaNodes[151].**.initialX = 1221.998m
**.loRaNodes[151].**.initialY = 8.648476m
**.loRaNodes[151].**.initialZ = 705.5058m

**.loRaNodes[152].**.initialX = 1235.957m
**.loRaNodes[152].**.initialY = 9.282793m
**.loRaNodes[152].**.initialZ = 740.96m

**.loRaNodes[153].**.initialX = 1175.671m
**.loRaNodes[153].**.initialY = 9.446706m
**.loRaNodes[153].**.initialZ = 806.2731m

**.loRaNodes[154].**.initialX = 1175.036m
**.loRaNodes[154].**.initialY = 8.740878m
**.loRaNodes[154].**.initialZ = 835.863m

**.loRaNodes[155].**.initialX = 1129.346m
**.loRaNodes[155].**.initialY = 7.766006m
**.loRaNodes[155].**.initialZ = 907.0406m

**.loRaNodes[156].**.initialX = 1114.116m
**.loRaNodes[156].**.initialY = 7.612166m
**.loRaNodes[156].**.initialZ = 930.7665m

**.loRaNodes[157].**.initialX = 1084.61m
**.loRaNodes[157].**.initialY = 8.42455m
**.loRaNodes[157].**.initialZ = 933.8335m

**.loRaNodes[158].**.initialX = 1219.137m
**.loRaNodes[158].**.initialY = 8.424727m
**.loRaNodes[158].**.initialZ = 838.6605m

**.loRaNodes[159].**.initialX = 1249.439m
**.loRaNodes[159].**.initialY = 8.70601m
**.loRaNodes[159].**.initialZ = 798.6066m

**.loRaNodes[160].**.initialX = 1324.359m
**.loRaNodes[160].**.initialY = 9.430566m
**.loRaNodes[160].**.initialZ = 737.309m

**.loRaNodes[161].**.initialX = 1354.383m
**.loRaNodes[161].**.initialY = 9.660551m
**.loRaNodes[161].**.initialZ = 710.201m

**.loRaNodes[162].**.initialX = 1355.099m
**.loRaNodes[162].**.initialY = 10.38857m
**.loRaNodes[162].**.initialZ = 676.9123m

**.loRaNodes[163].**.initialX = 1370.369m
**.loRaNodes[163].**.initialY = 10.14301m
**.loRaNodes[163].**.initialZ = 651.3374m

**.loRaNodes[164].**.initialX = 1401.269m
**.loRaNodes[164].**.initialY = 16.80225m
**.loRaNodes[164].**.initialZ = 583.5434m

**.loRaNodes[165].**.initialX = 1431.532m
**.loRaNodes[165].**.initialY = 26.42566m
**.loRaNodes[165].**.initialZ = 545.3394m

**.loRaNodes[166].**.initialX = 1446.963m
**.loRaNodes[166].**.initialY = 22.1713m
**.loRaNodes[166].**.initialZ = 512.3672m

**.loRaNodes[167].**.initialX = 1476.908m
**.loRaNodes[167].**.initialY = 8.036598m
**.loRaNodes[167].**.initialZ = 488.9584m

**.loRaNodes[168].**.initialX = 1492.219m
**.loRaNodes[168].**.initialY = 7.365858m
**.loRaNodes[168].**.initialZ = 461.5343m

**.loRaNodes[169].**.initialX = 1522.245m
**.loRaNodes[169].**.initialY = 8.816832m
**.loRaNodes[169].**.initialZ = 434.4269m

**.loRaNodes[170].**.initialX = 1552.151m
**.loRaNodes[170].**.initialY = 10.81779m
**.loRaNodes[170].**.initialZ = 412.8677m

**.loRaNodes[171].**.initialX = 1566.309m
**.loRaNodes[171].**.initialY = 10.63026m
**.loRaNodes[171].**.initialZ = 439.0756m

**.loRaNodes[172].**.initialX = 1594.344m
**.loRaNodes[172].**.initialY = 21.52413m
**.loRaNodes[172].**.initialZ = 504.437m

**.loRaNodes[173].**.initialX = 1418.884m
**.loRaNodes[173].**.initialY = 8.734957m
**.loRaNodes[173].**.initialZ = 1133.44m

**.loRaNodes[174].**.initialX = 1418.247m
**.loRaNodes[174].**.initialY = 7.826791m
**.loRaNodes[174].**.initialZ = 1163.03m

**.loRaNodes[175].**.initialX = 1402.938m
**.loRaNodes[175].**.initialY = 7.631227m
**.loRaNodes[175].**.initialZ = 1190.454m

**.loRaNodes[176].**.initialX = 1387.429m
**.loRaNodes[176].**.initialY = 7.49636m
**.loRaNodes[176].**.initialZ = 1227.125m

**.loRaNodes[177].**.initialX = 1343.171m
**.loRaNodes[177].**.initialY = 7.250097m
**.loRaNodes[177].**.initialZ = 1231.724m

**.loRaNodes[178].**.initialX = 1225.626m
**.loRaNodes[178].**.initialY = 7.168707m
**.loRaNodes[178].**.initialZ = 1221.797m

**.loRaNodes[179].**.initialX = 1027.827m
**.loRaNodes[179].**.initialY = 4.201824m
**.loRaNodes[179].**.initialZ = 149.9709m

**.loRaNodes[180].**.initialX = 1071.813m
**.loRaNodes[180].**.initialY = 4.50709m
**.loRaNodes[180].**.initialZ = 158.3156m

**.loRaNodes[181].**.initialX = 1101.203m
**.loRaNodes[181].**.initialY = 4.550344m
**.loRaNodes[181].**.initialZ = 160.7966m

**.loRaNodes[182].**.initialX = 1130.673m
**.loRaNodes[182].**.initialY = 4.483663m
**.loRaNodes[182].**.initialZ = 159.579m

**.loRaNodes[183].**.initialX = 1160.142m
**.loRaNodes[183].**.initialY = 4.079651m
**.loRaNodes[183].**.initialZ = 158.3614m

**.loRaNodes[184].**.initialX = 1204.247m
**.loRaNodes[184].**.initialY = 3.982587m
**.loRaNodes[184].**.initialZ = 161.1587m

**.loRaNodes[185].**.initialX = 1233.637m
**.loRaNodes[185].**.initialY = 4.144561m
**.loRaNodes[185].**.initialZ = 163.6402m

**.loRaNodes[186].**.initialX = 1277.742m
**.loRaNodes[186].**.initialY = 4.087915m
**.loRaNodes[186].**.initialZ = 166.4379m

**.loRaNodes[187].**.initialX = 1337.436m
**.loRaNodes[187].**.initialY = 3.724853m
**.loRaNodes[187].**.initialZ = 128.8659m

**.loRaNodes[188].**.initialX = 1338.311m
**.loRaNodes[188].**.initialY = 3.37289m
**.loRaNodes[188].**.initialZ = 88.17977m

**.loRaNodes[189].**.initialX = 1323.198m
**.loRaNodes[189].**.initialY = 2.493964m
**.loRaNodes[189].**.initialZ = 106.3572m

**.loRaNodes[190].**.initialX = 1322.403m
**.loRaNodes[190].**.initialY = 3.320384m
**.loRaNodes[190].**.initialZ = 143.3446m

**.loRaNodes[191].**.initialX = 1307.251m
**.loRaNodes[191].**.initialY = 3.83932m
**.loRaNodes[191].**.initialZ = 163.3715m

**.loRaNodes[192].**.initialX = 1263.107m
**.loRaNodes[192].**.initialY = 3.83623m
**.loRaNodes[192].**.initialZ = 162.423m

**.loRaNodes[193].**.initialX = 1219.081m
**.loRaNodes[193].**.initialY = 3.794127m
**.loRaNodes[193].**.initialZ = 155.9267m

**.loRaNodes[194].**.initialX = 1189.651m
**.loRaNodes[194].**.initialY = 3.807462m
**.loRaNodes[194].**.initialZ = 155.2946m

**.loRaNodes[195].**.initialX = 1145.308m
**.loRaNodes[195].**.initialY = 4.506462m
**.loRaNodes[195].**.initialZ = 163.5936m

**.loRaNodes[196].**.initialX = 1085.258m
**.loRaNodes[196].**.initialY = 3.976296m
**.loRaNodes[196].**.initialZ = 217.8112m

**.loRaNodes[197].**.initialX = 1141.24m
**.loRaNodes[197].**.initialY = 7.806884m
**.loRaNodes[197].**.initialZ = 1038.662m

**.loRaNodes[198].**.initialX = 1141.836m
**.loRaNodes[198].**.initialY = 9.048733m
**.loRaNodes[198].**.initialZ = 1010.921m

**.loRaNodes[199].**.initialX = 1449.265m
**.loRaNodes[199].**.initialY = 9.802979m
**.loRaNodes[199].**.initialZ = 1089.688m

**.loRaNodes[200].**.initialX = 1479.368m
**.loRaNodes[200].**.initialY = 9.266846m
**.loRaNodes[200].**.initialZ = 1058.882m

**.loRaNodes[201].**.initialX = 1495.076m
**.loRaNodes[201].**.initialY = 15.40694m
**.loRaNodes[201].**.initialZ = 1012.964m

**.loRaNodes[202].**.initialX = 1495.991m
**.loRaNodes[202].**.initialY = 20.2124m
**.loRaNodes[202].**.initialZ = 970.4283m

**.loRaNodes[203].**.initialX = 1556.995m
**.loRaNodes[203].**.initialY = 16.40082m
**.loRaNodes[203].**.initialZ = 871.8287m

**.loRaNodes[204].**.initialX = 1586.78m
**.loRaNodes[204].**.initialY = 15.63039m
**.loRaNodes[204].**.initialZ = 855.8177m

**.loRaNodes[205].**.initialX = 1615.81m
**.loRaNodes[205].**.initialY = 16.97879m
**.loRaNodes[205].**.initialZ = 874.9451m

**.loRaNodes[206].**.initialX = 1659.592m
**.loRaNodes[206].**.initialY = 17.66945m
**.loRaNodes[206].**.initialZ = 892.5399m

**.loRaNodes[207].**.initialX = 1703.494m
**.loRaNodes[207].**.initialY = 16.70092m
**.loRaNodes[207].**.initialZ = 904.5869m

**.loRaNodes[208].**.initialX = 1718.327m
**.loRaNodes[208].**.initialY = 16.71m
**.loRaNodes[208].**.initialZ = 899.3557m

**.loRaNodes[209].**.initialX = 1748.432m
**.loRaNodes[209].**.initialY = 16.78428m
**.loRaNodes[209].**.initialZ = 868.5504m

**.loRaNodes[210].**.initialX = 1763.743m
**.loRaNodes[210].**.initialY = 17.16686m
**.loRaNodes[210].**.initialZ = 841.1268m

**.loRaNodes[211].**.initialX = 1779.214m
**.loRaNodes[211].**.initialY = 17.09339m
**.loRaNodes[211].**.initialZ = 806.3058m

**.loRaNodes[212].**.initialX = 1794.884m
**.loRaNodes[212].**.initialY = 16.93818m
**.loRaNodes[212].**.initialZ = 762.2379m

**.loRaNodes[213].**.initialX = 1780.968m
**.loRaNodes[213].**.initialY = 16.27314m
**.loRaNodes[213].**.initialZ = 724.9334m

**.loRaNodes[214].**.initialX = 1781.765m
**.loRaNodes[214].**.initialY = 14.78928m
**.loRaNodes[214].**.initialZ = 687.9459m

**.loRaNodes[215].**.initialX = 1782.562m
**.loRaNodes[215].**.initialY = 14.0703m
**.loRaNodes[215].**.initialZ = 650.9584m

**.loRaNodes[216].**.initialX = 1768.724m
**.loRaNodes[216].**.initialY = 12.77095m
**.loRaNodes[216].**.initialZ = 609.9552m

**.loRaNodes[217].**.initialX = 1769.601m
**.loRaNodes[217].**.initialY = 10.37758m
**.loRaNodes[217].**.initialZ = 569.269m

**.loRaNodes[218].**.initialX = 1785.272m
**.loRaNodes[218].**.initialY = 7.555542m
**.loRaNodes[218].**.initialZ = 525.2011m

**.loRaNodes[219].**.initialX = 1801.74m
**.loRaNodes[219].**.initialY = 5.272259m
**.loRaNodes[219].**.initialZ = 444.1458m

**.loRaNodes[220].**.initialX = 1802.616m
**.loRaNodes[220].**.initialY = 4.531519m
**.loRaNodes[220].**.initialZ = 403.4596m

**.loRaNodes[221].**.initialX = 1714.728m
**.loRaNodes[221].**.initialY = 5.363545m
**.loRaNodes[221].**.initialZ = 383.0638m

**.loRaNodes[222].**.initialX = 1656.308m
**.loRaNodes[222].**.initialY = 5.450623m
**.loRaNodes[222].**.initialZ = 361.4531m

**.loRaNodes[223].**.initialX = 1627.436m