[General]
network = inet.simulations.CartagenaOPAL
**.maxTransmissionDuration = 4s
**.energyDetection = -120dBm

check-signals = false

#cmdenv-autoflush = true
#cmdenv-status-frequency = 10000000s
#cmdenv-express-mode = false
#cmdenv-output-file = cmd_env_log.txt
**.vector-recording = true

rng-class = "cMersenneTwister"
**.simulationType = "RDN"
**.rdnRays = 10000
**.useOpalReport = false

**.loRaGW[*].numUdpApps = 1
**.loRaGW[0].packetForwarder.localPort = 2000
**.loRaGW[0].packetForwarder.destPort = 1000
**.loRaGW[0].packetForwarder.destAddresses = "networkServer"
**.loRaGW[0].packetForwarder.indexNumber = 0

**.networkServer.numApps = 1
**.networkServer.**.evaluateADRinServer = true
**.networkServer.app[0].typename = "NetworkServerApp"
**.networkServer.app[0].destAddresses = "loRaGW[0]"
**.networkServer.app[0].destPort = 2000
**.networkServer.app[0].localPort = 1000
**.networkServer.app[0].adrMethod = ${"avg"}

**.numberOfPacketsToSend = 1 #${numberOfPAckets = 200..5000 step 200} #100 #obviously 0 means infinite number of packets
sim-time-limit = 5000s
warmup-period = 1s
simtime-resolution = -11
repeat = 1

**.timeToFirstPacket = exponential(15000s)
**.timeToNextPacket = exponential(15000s)
**.alohaChannelModel = false

**.constraintAreaMinX = 0m
**.constraintAreaMinY = 0m
**.constraintAreaMinZ = 0m
**.constraintAreaMaxX = 10000m
**.constraintAreaMaxY = 10000m
**.constraintAreaMaxZ = 10000m

#antenna type
#**.LoRaGWNic.radio.antennaType = "OpalLinearPolarizationAntenna"
#**.LoRaNic.radio.antennaType = "OpalLinearPolarizationAntenna"
**.LoRaGWNic.radio.antenna.typename = "OpalLinearPolarizationAntenna"
**.LoRaNic.radio.antenna.typename = "OpalLinearPolarizationAntenna"

#gateway features
**.numberOfGateways = 1
**.loRaGW[0].**.initialX = 1462.099m
**.loRaGW[0].**.initialY = 38.31m
**.loRaGW[0].**.initialZ = 618.0479m
**.LoRaGWNic.radio.iAmGateway = true
**.loRaGW[*].**.initFromDisplayString = false

#nodes features
**.loRaNodes[*].**initialLoRaSF = 12
**.loRaNodes[*].**initialLoRaTP = 14dBm
**.loRaNodes[*].**initialLoRaBW = 125 kHz
**.loRaNodes[*].**initialLoRaCR = 4
**.loRaNodes[*].**.initFromDisplayString = false
**.loRaNodes[*].**.evaluateADRinNode = true
**.loRaNodes[*].numApps = 1
**.loRaNodes[*].app[0].typename = "SimpleLoRaApp"

**.numberOfNodes = 299

**.loRaNodes[0].**.initialX = 1708.553m + uniform(-0.20m, 0.20m)
**.loRaNodes[0].**.initialY = 25.37794m + uniform(-0.20m, 0.20m)
**.loRaNodes[0].**.initialZ = 669.7165m + uniform(-0.20m, 0.20m)

**.loRaNodes[1].**.initialX = 1708.513m + uniform(-0.20m, 0.20m)
**.loRaNodes[1].**.initialY = 25.46581m + uniform(-0.20m, 0.20m)
**.loRaNodes[1].**.initialZ = 671.5659m + uniform(-0.20m, 0.20m)

**.loRaNodes[2].**.initialX = 1723.188m + uniform(-0.20m, 0.20m)
**.loRaNodes[2].**.initialY = 20.03343m + uniform(-0.20m, 0.20m)
**.loRaNodes[2].**.initialZ = 673.7322m + uniform(-0.20m, 0.20m)

**.loRaNodes[3].**.initialX = 1723.148m + uniform(-0.20m, 0.20m)
**.loRaNodes[3].**.initialY = 19.48339m + uniform(-0.20m, 0.20m)
**.loRaNodes[3].**.initialZ = 675.5816m + uniform(-0.20m, 0.20m)

**.loRaNodes[4].**.initialX = 1737.702m + uniform(-0.20m, 0.20m)
**.loRaNodes[4].**.initialY = 17.85535m + uniform(-0.20m, 0.20m)
**.loRaNodes[4].**.initialZ = 683.2961m + uniform(-0.20m, 0.20m)

**.loRaNodes[5].**.initialX = 1737.623m + uniform(-0.20m, 0.20m)
**.loRaNodes[5].**.initialY = 18.15676m + uniform(-0.20m, 0.20m)
**.loRaNodes[5].**.initialZ = 686.9948m + uniform(-0.20m, 0.20m)

**.loRaNodes[6].**.initialX = 1737.583m + uniform(-0.20m, 0.20m)
**.loRaNodes[6].**.initialY = 18.31003m + uniform(-0.20m, 0.20m)
**.loRaNodes[6].**.initialZ = 688.8442m + uniform(-0.20m, 0.20m)

**.loRaNodes[7].**.initialX = 1752.058m + uniform(-0.20m, 0.20m)
**.loRaNodes[7].**.initialY = 18.6995m + uniform(-0.20m, 0.20m)
**.loRaNodes[7].**.initialZ = 700.2574m + uniform(-0.20m, 0.20m)

**.loRaNodes[8].**.initialX = 1824.193m + uniform(-0.20m, 0.20m)
**.loRaNodes[8].**.initialY = 16.15644m + uniform(-0.20m, 0.20m)
**.loRaNodes[8].**.initialZ = 768.4203m + uniform(-0.20m, 0.20m)

**.loRaNodes[9].**.initialX = 1882.171m + uniform(-0.20m, 0.20m)
**.loRaNodes[9].**.initialY = 16.51553m + uniform(-0.20m, 0.20m)
**.loRaNodes[9].**.initialZ = 810.3754m + uniform(-0.20m, 0.20m)

**.loRaNodes[10].**.initialX = 1855.534m + uniform(-0.20m, 0.20m)
**.loRaNodes[10].**.initialY = 15.4363m + uniform(-0.20m, 0.20m)
**.loRaNodes[10].**.initialZ = 680.2848m + uniform(-0.20m, 0.20m)

**.loRaNodes[11].**.initialX = 1028.494m + uniform(-0.20m, 0.20m)
**.loRaNodes[11].**.initialY = 33.6128m + uniform(-0.20m, 0.20m)
**.loRaNodes[11].**.initialZ = 804.9636m + uniform(-0.20m, 0.20m)

**.loRaNodes[12].**.initialX = 1028.494m + uniform(-0.20m, 0.20m)
**.loRaNodes[12].**.initialY = 33.6128m + uniform(-0.20m, 0.20m)
**.loRaNodes[12].**.initialZ = 804.9636m + uniform(-0.20m, 0.20m)

**.loRaNodes[13].**.initialX = 1028.494m + uniform(-0.20m, 0.20m)
**.loRaNodes[13].**.initialY = 33.6128m + uniform(-0.20m, 0.20m)
**.loRaNodes[13].**.initialZ = 804.9636m + uniform(-0.20m, 0.20m)

**.loRaNodes[14].**.initialX = 1028.494m + uniform(-0.20m, 0.20m)
**.loRaNodes[14].**.initialY = 33.6128m + uniform(-0.20m, 0.20m)
**.loRaNodes[14].**.initialZ = 804.9636m + uniform(-0.20m, 0.20m)

**.loRaNodes[15].**.initialX = 1028.494m + uniform(-0.20m, 0.20m)
**.loRaNodes[15].**.initialY = 33.6128m + uniform(-0.20m, 0.20m)
**.loRaNodes[15].**.initialZ = 804.9636m + uniform(-0.20m, 0.20m)

**.loRaNodes[16].**.initialX = 1028.494m + uniform(-0.20m, 0.20m)
**.loRaNodes[16].**.initialY = 33.6128m + uniform(-0.20m, 0.20m)
**.loRaNodes[16].**.initialZ = 804.9636m + uniform(-0.20m, 0.20m)

**.loRaNodes[17].**.initialX = 1028.494m + uniform(-0.20m, 0.20m)
**.loRaNodes[17].**.initialY = 33.6128m + uniform(-0.20m, 0.20m)
**.loRaNodes[17].**.initialZ = 804.9636m + uniform(-0.20m, 0.20m)

**.loRaNodes[18].**.initialX = 1028.494m + uniform(-0.20m, 0.20m)
**.loRaNodes[18].**.initialY = 33.6128m + uniform(-0.20m, 0.20m)
**.loRaNodes[18].**.initialZ = 804.9636m + uniform(-0.20m, 0.20m)

**.loRaNodes[19].**.initialX = 1028.494m + uniform(-0.20m, 0.20m)
**.loRaNodes[19].**.initialY = 33.6128m + uniform(-0.20m, 0.20m)
**.loRaNodes[19].**.initialZ = 804.9636m + uniform(-0.20m, 0.20m)

**.loRaNodes[20].**.initialX = 1028.494m + uniform(-0.20m, 0.20m)
**.loRaNodes[20].**.initialY = 33.6128m + uniform(-0.20m, 0.20m)
**.loRaNodes[20].**.initialZ = 804.9636m + uniform(-0.20m, 0.20m)

**.loRaNodes[21].**.initialX = 1028.494m + uniform(-0.20m, 0.20m)
**.loRaNodes[21].**.initialY = 33.6128m + uniform(-0.20m, 0.20m)
**.loRaNodes[21].**.initialZ = 804.9636m + uniform(-0.20m, 0.20m)

**.loRaNodes[22].**.initialX = 1028.494m + uniform(-0.20m, 0.20m)
**.loRaNodes[22].**.initialY = 33.6128m + uniform(-0.20m, 0.20m)
**.loRaNodes[22].**.initialZ = 804.9636m + uniform(-0.20m, 0.20m)

**.loRaNodes[23].**.initialX = 1028.494m + uniform(-0.20m, 0.20m)
**.loRaNodes[23].**.initialY = 33.6128m + uniform(-0.20m, 0.20m)
**.loRaNodes[23].**.initialZ = 804.9636m + uniform(-0.20m, 0.20m)

**.loRaNodes[24].**.initialX = 1028.494m + uniform(-0.20m, 0.20m)
**.loRaNodes[24].**.initialY = 33.6128m + uniform(-0.20m, 0.20m)
**.loRaNodes[24].**.initialZ = 804.9636m + uniform(-0.20m, 0.20m)

**.loRaNodes[25].**.initialX = 1028.494m + uniform(-0.20m, 0.20m)
**.loRaNodes[25].**.initialY = 33.6128m + uniform(-0.20m, 0.20m)
**.loRaNodes[25].**.initialZ = 804.9636m + uniform(-0.20m, 0.20m)

**.loRaNodes[26].**.initialX = 1358.041m + uniform(-0.20m, 0.20m)
**.loRaNodes[26].**.initialY = 44.20044m + uniform(-0.20m, 0.20m)
**.loRaNodes[26].**.initialZ = 540.0588m + uniform(-0.20m, 0.20m)

**.loRaNodes[27].**.initialX = 1358.041m + uniform(-0.20m, 0.20m)
**.loRaNodes[27].**.initialY = 44.20044m + uniform(-0.20m, 0.20m)
**.loRaNodes[27].**.initialZ = 540.0588m + uniform(-0.20m, 0.20m)

**.loRaNodes[28].**.initialX = 1358.041m + uniform(-0.20m, 0.20m)
**.loRaNodes[28].**.initialY = 44.20044m + uniform(-0.20m, 0.20m)
**.loRaNodes[28].**.initialZ = 540.0588m + uniform(-0.20m, 0.20m)

**.loRaNodes[29].**.initialX = 1358.041m + uniform(-0.20m, 0.20m)
**.loRaNodes[29].**.initialY = 44.20044m + uniform(-0.20m, 0.20m)
**.loRaNodes[29].**.initialZ = 540.0588m + uniform(-0.20m, 0.20m)

**.loRaNodes[30].**.initialX = 1358.041m + uniform(-0.20m, 0.20m)
**.loRaNodes[30].**.initialY = 44.20044m + uniform(-0.20m, 0.20m)
**.loRaNodes[30].**.initialZ = 540.0588m + uniform(-0.20m, 0.20m)

**.loRaNodes[31].**.initialX = 1358.041m + uniform(-0.20m, 0.20m)
**.loRaNodes[31].**.initialY = 44.20044m + uniform(-0.20m, 0.20m)
**.loRaNodes[31].**.initialZ = 540.0588m + uniform(-0.20m, 0.20m)

**.loRaNodes[32].**.initialX = 1358.001m + uniform(-0.20m, 0.20m)
**.loRaNodes[32].**.initialY = 42.8457m + uniform(-0.20m, 0.20m)
**.loRaNodes[32].**.initialZ = 541.9081m + uniform(-0.20m, 0.20m)

**.loRaNodes[33].**.initialX = 1358.001m + uniform(-0.20m, 0.20m)
**.loRaNodes[33].**.initialY = 42.8457m + uniform(-0.20m, 0.20m)
**.loRaNodes[33].**.initialZ = 541.9081m + uniform(-0.20m, 0.20m)

**.loRaNodes[34].**.initialX = 1358.001m + uniform(-0.20m, 0.20m)
**.loRaNodes[34].**.initialY = 42.8457m + uniform(-0.20m, 0.20m)
**.loRaNodes[34].**.initialZ = 541.9081m + uniform(-0.20m, 0.20m)

**.loRaNodes[35].**.initialX = 1358.041m + uniform(-0.20m, 0.20m)
**.loRaNodes[35].**.initialY = 44.20044m + uniform(-0.20m, 0.20m)
**.loRaNodes[35].**.initialZ = 540.0588m + uniform(-0.20m, 0.20m)

**.loRaNodes[36].**.initialX = 1358.041m + uniform(-0.20m, 0.20m)
**.loRaNodes[36].**.initialY = 44.20044m + uniform(-0.20m, 0.20m)
**.loRaNodes[36].**.initialZ = 540.0588m + uniform(-0.20m, 0.20m)

**.loRaNodes[37].**.initialX = 1358.041m + uniform(-0.20m, 0.20m)
**.loRaNodes[37].**.initialY = 44.20044m + uniform(-0.20m, 0.20m)
**.loRaNodes[37].**.initialZ = 540.0588m + uniform(-0.20m, 0.20m)

**.loRaNodes[38].**.initialX = 1402.462m + uniform(-0.20m, 0.20m)
**.loRaNodes[38].**.initialY = 47.65255m + uniform(-0.20m, 0.20m)
**.loRaNodes[38].**.initialZ = 528.0623m + uniform(-0.20m, 0.20m)

**.loRaNodes[39].**.initialX = 1402.502m + uniform(-0.20m, 0.20m)
**.loRaNodes[39].**.initialY = 48.70436m + uniform(-0.20m, 0.20m)
**.loRaNodes[39].**.initialZ = 526.2129m + uniform(-0.20m, 0.20m)

**.loRaNodes[40].**.initialX = 1402.502m + uniform(-0.20m, 0.20m)
**.loRaNodes[40].**.initialY = 48.70436m + uniform(-0.20m, 0.20m)
**.loRaNodes[40].**.initialZ = 526.2129m + uniform(-0.20m, 0.20m)

**.loRaNodes[41].**.initialX = 1402.502m + uniform(-0.20m, 0.20m)
**.loRaNodes[41].**.initialY = 48.70436m + uniform(-0.20m, 0.20m)
**.loRaNodes[41].**.initialZ = 526.2129m + uniform(-0.20m, 0.20m)

**.loRaNodes[42].**.initialX = 1402.502m + uniform(-0.20m, 0.20m)
**.loRaNodes[42].**.initialY = 48.70436m + uniform(-0.20m, 0.20m)
**.loRaNodes[42].**.initialZ = 526.2129m + uniform(-0.20m, 0.20m)

**.loRaNodes[43].**.initialX = 1402.502m + uniform(-0.20m, 0.20m)
**.loRaNodes[43].**.initialY = 48.70436m + uniform(-0.20m, 0.20m)
**.loRaNodes[43].**.initialZ = 526.2129m + uniform(-0.20m, 0.20m)

**.loRaNodes[44].**.initialX = 1402.502m + uniform(-0.20m, 0.20m)
**.loRaNodes[44].**.initialY = 48.70436m + uniform(-0.20m, 0.20m)
**.loRaNodes[44].**.initialZ = 526.2129m + uniform(-0.20m, 0.20m)

**.loRaNodes[45].**.initialX = 1402.502m + uniform(-0.20m, 0.20m)
**.loRaNodes[45].**.initialY = 48.70436m + uniform(-0.20m, 0.20m)
**.loRaNodes[45].**.initialZ = 526.2129m + uniform(-0.20m, 0.20m)

**.loRaNodes[46].**.initialX = 1402.462m + uniform(-0.20m, 0.20m)
**.loRaNodes[46].**.initialY = 47.65255m + uniform(-0.20m, 0.20m)
**.loRaNodes[46].**.initialZ = 528.0623m + uniform(-0.20m, 0.20m)

**.loRaNodes[47].**.initialX = 1402.502m + uniform(-0.20m, 0.20m)
**.loRaNodes[47].**.initialY = 48.70436m + uniform(-0.20m, 0.20m)
**.loRaNodes[47].**.initialZ = 526.2129m + uniform(-0.20m, 0.20m)

**.loRaNodes[48].**.initialX = 1402.541m + uniform(-0.20m, 0.20m)
**.loRaNodes[48].**.initialY = 49.65421m + uniform(-0.20m, 0.20m)
**.loRaNodes[48].**.initialZ = 524.3635m + uniform(-0.20m, 0.20m)

**.loRaNodes[49].**.initialX = 1402.581m + uniform(-0.20m, 0.20m)
**.loRaNodes[49].**.initialY = 50.58991m + uniform(-0.20m, 0.20m)
**.loRaNodes[49].**.initialZ = 522.5142m + uniform(-0.20m, 0.20m)

**.loRaNodes[50].**.initialX = 1388.265m + uniform(-0.20m, 0.20m)
**.loRaNodes[50].**.initialY = 53.29566m + uniform(-0.20m, 0.20m)
**.loRaNodes[50].**.initialZ = 503.704m + uniform(-0.20m, 0.20m)

**.loRaNodes[51].**.initialX = 1373.312m + uniform(-0.20m, 0.20m)
**.loRaNodes[51].**.initialY = 53.45962m + uniform(-0.20m, 0.20m)
**.loRaNodes[51].**.initialZ = 514.4839m + uniform(-0.20m, 0.20m)

**.loRaNodes[52].**.initialX = 1373.312m + uniform(-0.20m, 0.20m)
**.loRaNodes[52].**.initialY = 53.45962m + uniform(-0.20m, 0.20m)
**.loRaNodes[52].**.initialZ = 514.4839m + uniform(-0.20m, 0.20m)

**.loRaNodes[53].**.initialX = 1373.312m + uniform(-0.20m, 0.20m)
**.loRaNodes[53].**.initialY = 53.45962m + uniform(-0.20m, 0.20m)
**.loRaNodes[53].**.initialZ = 514.4839m + uniform(-0.20m, 0.20m)

**.loRaNodes[54].**.initialX = 1388.026m + uniform(-0.20m, 0.20m)
**.loRaNodes[54].**.initialY = 52.98377m + uniform(-0.20m, 0.20m)
**.loRaNodes[54].**.initialZ = 514.8003m + uniform(-0.20m, 0.20m)

**.loRaNodes[55].**.initialX = 1388.066m + uniform(-0.20m, 0.20m)
**.loRaNodes[55].**.initialY = 53.04892m + uniform(-0.20m, 0.20m)
**.loRaNodes[55].**.initialZ = 512.9509m + uniform(-0.20m, 0.20m)

**.loRaNodes[56].**.initialX = 1388.066m + uniform(-0.20m, 0.20m)
**.loRaNodes[56].**.initialY = 53.04892m + uniform(-0.20m, 0.20m)
**.loRaNodes[56].**.initialZ = 512.9509m + uniform(-0.20m, 0.20m)

**.loRaNodes[57].**.initialX = 1388.066m + uniform(-0.20m, 0.20m)
**.loRaNodes[57].**.initialY = 53.04892m + uniform(-0.20m, 0.20m)
**.loRaNodes[57].**.initialZ = 512.9509m + uniform(-0.20m, 0.20m)

**.loRaNodes[58].**.initialX = 1388.026m + uniform(-0.20m, 0.20m)
**.loRaNodes[58].**.initialY = 52.98377m + uniform(-0.20m, 0.20m)
**.loRaNodes[58].**.initialZ = 514.8003m + uniform(-0.20m, 0.20m)

**.loRaNodes[59].**.initialX = 1387.986m + uniform(-0.20m, 0.20m)
**.loRaNodes[59].**.initialY = 52.91863m + uniform(-0.20m, 0.20m)
**.loRaNodes[59].**.initialZ = 516.6497m + uniform(-0.20m, 0.20m)

**.loRaNodes[60].**.initialX = 1387.946m + uniform(-0.20m, 0.20m)
**.loRaNodes[60].**.initialY = 52.88314m + uniform(-0.20m, 0.20m)
**.loRaNodes[60].**.initialZ = 518.499m + uniform(-0.20m, 0.20m)

**.loRaNodes[61].**.initialX = 1387.986m + uniform(-0.20m, 0.20m)
**.loRaNodes[61].**.initialY = 52.91863m + uniform(-0.20m, 0.20m)
**.loRaNodes[61].**.initialZ = 516.6497m + uniform(-0.20m, 0.20m)

**.loRaNodes[62].**.initialX = 1414.432m + uniform(-0.20m, 0.20m)
**.loRaNodes[62].**.initialY = 18.32355m + uniform(-0.20m, 0.20m)
**.loRaNodes[62].**.initialZ = 655.9853m + uniform(-0.20m, 0.20m)

**.loRaNodes[63].**.initialX = 1414.432m + uniform(-0.20m, 0.20m)
**.loRaNodes[63].**.initialY = 18.32355m + uniform(-0.20m, 0.20m)
**.loRaNodes[63].**.initialZ = 655.9853m + uniform(-0.20m, 0.20m)

**.loRaNodes[64].**.initialX = 1414.432m + uniform(-0.20m, 0.20m)
**.loRaNodes[64].**.initialY = 18.32355m + uniform(-0.20m, 0.20m)
**.loRaNodes[64].**.initialZ = 655.9853m + uniform(-0.20m, 0.20m)

**.loRaNodes[65].**.initialX = 1414.472m + uniform(-0.20m, 0.20m)
**.loRaNodes[65].**.initialY = 18.43832m + uniform(-0.20m, 0.20m)
**.loRaNodes[65].**.initialZ = 654.1359m + uniform(-0.20m, 0.20m)

**.loRaNodes[66].**.initialX = 1414.511m + uniform(-0.20m, 0.20m)
**.loRaNodes[66].**.initialY = 18.4635m + uniform(-0.20m, 0.20m)
**.loRaNodes[66].**.initialZ = 652.2866m + uniform(-0.20m, 0.20m)

**.loRaNodes[67].**.initialX = 1414.551m + uniform(-0.20m, 0.20m)
**.loRaNodes[67].**.initialY = 18.48867m + uniform(-0.20m, 0.20m)
**.loRaNodes[67].**.initialZ = 650.4372m + uniform(-0.20m, 0.20m)

**.loRaNodes[68].**.initialX = 1414.511m + uniform(-0.20m, 0.20m)
**.loRaNodes[68].**.initialY = 18.4635m + uniform(-0.20m, 0.20m)
**.loRaNodes[68].**.initialZ = 652.2866m + uniform(-0.20m, 0.20m)

**.loRaNodes[69].**.initialX = 1395.94m + uniform(-0.20m, 0.20m)
**.loRaNodes[69].**.initialY = 10.2442m + uniform(-0.20m, 0.20m)
**.loRaNodes[69].**.initialZ = 831.3593m + uniform(-0.20m, 0.20m)

**.loRaNodes[70].**.initialX = 1395.9m + uniform(-0.20m, 0.20m)
**.loRaNodes[70].**.initialY = 10.54072m + uniform(-0.20m, 0.20m)
**.loRaNodes[70].**.initialZ = 833.2086m + uniform(-0.20m, 0.20m)

**.loRaNodes[71].**.initialX = 1381.266m + uniform(-0.20m, 0.20m)
**.loRaNodes[71].**.initialY = 11.46299m + uniform(-0.20m, 0.20m)
**.loRaNodes[71].**.initialZ = 829.1935m + uniform(-0.20m, 0.20m)

**.loRaNodes[72].**.initialX = 1431.691m + uniform(-0.20m, 0.20m)
**.loRaNodes[72].**.initialY = 34.89276m + uniform(-0.20m, 0.20m)
**.loRaNodes[72].**.initialZ = 537.942m + uniform(-0.20m, 0.20m)

**.loRaNodes[73].**.initialX = 1431.691m + uniform(-0.20m, 0.20m)
**.loRaNodes[73].**.initialY = 34.89276m + uniform(-0.20m, 0.20m)
**.loRaNodes[73].**.initialZ = 537.942m + uniform(-0.20m, 0.20m)

**.loRaNodes[74].**.initialX = 1431.691m + uniform(-0.20m, 0.20m)
**.loRaNodes[74].**.initialY = 34.89276m + uniform(-0.20m, 0.20m)
**.loRaNodes[74].**.initialZ = 537.942m + uniform(-0.20m, 0.20m)

**.loRaNodes[75].**.initialX = 1431.691m + uniform(-0.20m, 0.20m)
**.loRaNodes[75].**.initialY = 34.89276m + uniform(-0.20m, 0.20m)
**.loRaNodes[75].**.initialZ = 537.942m + uniform(-0.20m, 0.20m)

**.loRaNodes[76].**.initialX = 1431.691m + uniform(-0.20m, 0.20m)
**.loRaNodes[76].**.initialY = 34.89276m + uniform(-0.20m, 0.20m)
**.loRaNodes[76].**.initialZ = 537.942m + uniform(-0.20m, 0.20m)

**.loRaNodes[77].**.initialX = 1431.691m + uniform(-0.20m, 0.20m)
**.loRaNodes[77].**.initialY = 34.89276m + uniform(-0.20m, 0.20m)
**.loRaNodes[77].**.initialZ = 537.942m + uniform(-0.20m, 0.20m)

**.loRaNodes[78].**.initialX = 1431.691m + uniform(-0.20m, 0.20m)
**.loRaNodes[78].**.initialY = 34.89276m + uniform(-0.20m, 0.20m)
**.loRaNodes[78].**.initialZ = 537.942m + uniform(-0.20m, 0.20m)

**.loRaNodes[79].**.initialX = 1431.691m + uniform(-0.20m, 0.20m)
**.loRaNodes[79].**.initialY = 34.89276m + uniform(-0.20m, 0.20m)
**.loRaNodes[79].**.initialZ = 537.942m + uniform(-0.20m, 0.20m)

**.loRaNodes[80].**.initialX = 1431.691m + uniform(-0.20m, 0.20m)
**.loRaNodes[80].**.initialY = 34.89276m + uniform(-0.20m, 0.20m)
**.loRaNodes[80].**.initialZ = 537.942m + uniform(-0.20m, 0.20m)

**.loRaNodes[81].**.initialX = 1431.652m + uniform(-0.20m, 0.20m)
**.loRaNodes[81].**.initialY = 32.40884m + uniform(-0.20m, 0.20m)
**.loRaNodes[81].**.initialZ = 539.7913m + uniform(-0.20m, 0.20m)

**.loRaNodes[82].**.initialX = 1431.652m + uniform(-0.20m, 0.20m)
**.loRaNodes[82].**.initialY = 32.40884m + uniform(-0.20m, 0.20m)
**.loRaNodes[82].**.initialZ = 539.7913m + uniform(-0.20m, 0.20m)

**.loRaNodes[83].**.initialX = 1431.652m + uniform(-0.20m, 0.20m)
**.loRaNodes[83].**.initialY = 32.40884m + uniform(-0.20m, 0.20m)
**.loRaNodes[83].**.initialZ = 539.7913m + uniform(-0.20m, 0.20m)

**.loRaNodes[84].**.initialX = 1431.652m + uniform(-0.20m, 0.20m)
**.loRaNodes[84].**.initialY = 32.40884m + uniform(-0.20m, 0.20m)
**.loRaNodes[84].**.initialZ = 539.7913m + uniform(-0.20m, 0.20m)

**.loRaNodes[85].**.initialX = 1431.612m + uniform(-0.20m, 0.20m)
**.loRaNodes[85].**.initialY = 30.78476m + uniform(-0.20m, 0.20m)
**.loRaNodes[85].**.initialZ = 541.6407m + uniform(-0.20m, 0.20m)

**.loRaNodes[86].**.initialX = 1463.029m + uniform(-0.20m, 0.20m)
**.loRaNodes[86].**.initialY = 34.97985m + uniform(-0.20m, 0.20m)
**.loRaNodes[86].**.initialZ = 449.8051m + uniform(-0.20m, 0.20m)

**.loRaNodes[87].**.initialX = 1463.029m + uniform(-0.20m, 0.20m)
**.loRaNodes[87].**.initialY = 34.97985m + uniform(-0.20m, 0.20m)
**.loRaNodes[87].**.initialZ = 449.8051m + uniform(-0.20m, 0.20m)

**.loRaNodes[88].**.initialX = 1463.029m + uniform(-0.20m, 0.20m)
**.loRaNodes[88].**.initialY = 34.97985m + uniform(-0.20m, 0.20m)
**.loRaNodes[88].**.initialZ = 449.8051m + uniform(-0.20m, 0.20m)

**.loRaNodes[89].**.initialX = 1463.069m + uniform(-0.20m, 0.20m)
**.loRaNodes[89].**.initialY = 34.6506m + uniform(-0.20m, 0.20m)
**.loRaNodes[89].**.initialZ = 447.9557m + uniform(-0.20m, 0.20m)

**.loRaNodes[90].**.initialX = 1463.029m + uniform(-0.20m, 0.20m)
**.loRaNodes[90].**.initialY = 34.97985m + uniform(-0.20m, 0.20m)
**.loRaNodes[90].**.initialZ = 449.8051m + uniform(-0.20m, 0.20m)

**.loRaNodes[91].**.initialX = 1463.029m + uniform(-0.20m, 0.20m)
**.loRaNodes[91].**.initialY = 34.97985m + uniform(-0.20m, 0.20m)
**.loRaNodes[91].**.initialZ = 449.8051m + uniform(-0.20m, 0.20m)

**.loRaNodes[92].**.initialX = 1463.029m + uniform(-0.20m, 0.20m)
**.loRaNodes[92].**.initialY = 34.97985m + uniform(-0.20m, 0.20m)
**.loRaNodes[92].**.initialZ = 449.8051m + uniform(-0.20m, 0.20m)

**.loRaNodes[93].**.initialX = 1463.029m + uniform(-0.20m, 0.20m)
**.loRaNodes[93].**.initialY = 34.97985m + uniform(-0.20m, 0.20m)
**.loRaNodes[93].**.initialZ = 449.8051m + uniform(-0.20m, 0.20m)

**.loRaNodes[94].**.initialX = 1463.029m + uniform(-0.20m, 0.20m)
**.loRaNodes[94].**.initialY = 34.97985m + uniform(-0.20m, 0.20m)
**.loRaNodes[94].**.initialZ = 449.8051m + uniform(-0.20m, 0.20m)

**.loRaNodes[95].**.initialX = 1463.029m + uniform(-0.20m, 0.20m)
**.loRaNodes[95].**.initialY = 34.97985m + uniform(-0.20m, 0.20m)
**.loRaNodes[95].**.initialZ = 449.8051m + uniform(-0.20m, 0.20m)

**.loRaNodes[96].**.initialX = 1463.029m + uniform(-0.20m, 0.20m)
**.loRaNodes[96].**.initialY = 34.97985m + uniform(-0.20m, 0.20m)
**.loRaNodes[96].**.initialZ = 449.8051m + uniform(-0.20m, 0.20m)

**.loRaNodes[97].**.initialX = 1463.029m + uniform(-0.20m, 0.20m)
**.loRaNodes[97].**.initialY = 34.97985m + uniform(-0.20m, 0.20m)
**.loRaNodes[97].**.initialZ = 449.8051m + uniform(-0.20m, 0.20m)

**.loRaNodes[98].**.initialX = 1463.069m + uniform(-0.20m, 0.20m)
**.loRaNodes[98].**.initialY = 34.6506m + uniform(-0.20m, 0.20m)
**.loRaNodes[98].**.initialZ = 447.9557m + uniform(-0.20m, 0.20m)

**.loRaNodes[99].**.initialX = 1463.069m + uniform(-0.20m, 0.20m)
**.loRaNodes[99].**.initialY = 34.6506m + uniform(-0.20m, 0.20m)
**.loRaNodes[99].**.initialZ = 447.9557m + uniform(-0.20m, 0.20m)

**.loRaNodes[100].**.initialX = 1448.434m + uniform(-0.20m, 0.20m)
**.loRaNodes[100].**.initialY = 47.41198m + uniform(-0.20m, 0.20m)
**.loRaNodes[100].**.initialZ = 443.9405m + uniform(-0.20m, 0.20m)

**.loRaNodes[101].**.initialX = 1617.8m + uniform(-0.20m, 0.20m)
**.loRaNodes[101].**.initialY = 26.02801m + uniform(-0.20m, 0.20m)
**.loRaNodes[101].**.initialZ = 782.4764m + uniform(-0.20m, 0.20m)

**.loRaNodes[102].**.initialX = 1602.37m + uniform(-0.20m, 0.20m)
**.loRaNodes[102].**.initialY = 20.26019m + uniform(-0.20m, 0.20m)
**.loRaNodes[102].**.initialZ = 815.4483m + uniform(-0.20m, 0.20m)

**.loRaNodes[103].**.initialX = 1513.968m + uniform(-0.20m, 0.20m)
**.loRaNodes[103].**.initialY = 12.26089m + uniform(-0.20m, 0.20m)
**.loRaNodes[103].**.initialZ = 819.0963m + uniform(-0.20m, 0.20m)

**.loRaNodes[104].**.initialX = 1468.912m + uniform(-0.20m, 0.20m)
**.loRaNodes[104].**.initialY = 11.4048m + uniform(-0.20m, 0.20m)
**.loRaNodes[104].**.initialZ = 860.6822m + uniform(-0.20m, 0.20m)

**.loRaNodes[105].**.initialX = 1439.962m + uniform(-0.20m, 0.20m)
**.loRaNodes[105].**.initialY = 10.22563m + uniform(-0.20m, 0.20m)
**.loRaNodes[105].**.initialZ = 837.8567m + uniform(-0.20m, 0.20m)

**.loRaNodes[106].**.initialX = 1395.94m + uniform(-0.20m, 0.20m)
**.loRaNodes[106].**.initialY = 10.2442m + uniform(-0.20m, 0.20m)
**.loRaNodes[106].**.initialZ = 831.3593m + uniform(-0.20m, 0.20m)

**.loRaNodes[107].**.initialX = 1411.728m + uniform(-0.20m, 0.20m)
**.loRaNodes[107].**.initialY = 9.075443m + uniform(-0.20m, 0.20m)
**.loRaNodes[107].**.initialZ = 781.7426m + uniform(-0.20m, 0.20m)

**.loRaNodes[108].**.initialX = 1441.792m + uniform(-0.20m, 0.20m)
**.loRaNodes[108].**.initialY = 10.8654m + uniform(-0.20m, 0.20m)
**.loRaNodes[108].**.initialZ = 752.7856m + uniform(-0.20m, 0.20m)

**.loRaNodes[109].**.initialX = 1471.538m + uniform(-0.20m, 0.20m)
**.loRaNodes[109].**.initialY = 12.67075m + uniform(-0.20m, 0.20m)
**.loRaNodes[109].**.initialZ = 738.6236m + uniform(-0.20m, 0.20m)

**.loRaNodes[110].**.initialX = 1501.88m + uniform(-0.20m, 0.20m)
**.loRaNodes[110].**.initialY = 16.69077m + uniform(-0.20m, 0.20m)
**.loRaNodes[110].**.initialZ = 696.7211m + uniform(-0.20m, 0.20m)

**.loRaNodes[111].**.initialX = 1547.376m + uniform(-0.20m, 0.20m)
**.loRaNodes[111].**.initialY = 22.19481m + uniform(-0.20m, 0.20m)
**.loRaNodes[111].**.initialZ = 634.7924m + uniform(-0.20m, 0.20m)

**.loRaNodes[112].**.initialX = 1533.776m + uniform(-0.20m, 0.20m)
**.loRaNodes[112].**.initialY = 27.07964m + uniform(-0.20m, 0.20m)
**.loRaNodes[112].**.initialZ = 582.6933m + uniform(-0.20m, 0.20m)

**.loRaNodes[113].**.initialX = 1519.221m + uniform(-0.20m, 0.20m)
**.loRaNodes[113].**.initialY = 28.01937m + uniform(-0.20m, 0.20m)
**.loRaNodes[113].**.initialZ = 574.9792m + uniform(-0.20m, 0.20m)

**.loRaNodes[114].**.initialX = 1459.29m + uniform(-0.20m, 0.20m)
**.loRaNodes[114].**.initialY = 23.01464m + uniform(-0.20m, 0.20m)
**.loRaNodes[114].**.initialZ = 623.646m + uniform(-0.20m, 0.20m)

**.loRaNodes[115].**.initialX = 1428.629m + uniform(-0.20m, 0.20m)
**.loRaNodes[115].**.initialY = 15.85552m + uniform(-0.20m, 0.20m)
**.loRaNodes[115].**.initialZ = 680.3436m + uniform(-0.20m, 0.20m)

**.loRaNodes[116].**.initialX = 1398.445m + uniform(-0.20m, 0.20m)
**.loRaNodes[116].**.initialY = 11.16411m + uniform(-0.20m, 0.20m)
**.loRaNodes[116].**.initialZ = 714.8488m + uniform(-0.20m, 0.20m)

**.loRaNodes[117].**.initialX = 1369.415m + uniform(-0.20m, 0.20m)
**.loRaNodes[117].**.initialY = 10.82737m + uniform(-0.20m, 0.20m)
**.loRaNodes[117].**.initialZ = 695.7224m + uniform(-0.20m, 0.20m)

**.loRaNodes[118].**.initialX = 1370.489m + uniform(-0.20m, 0.20m)
**.loRaNodes[118].**.initialY = 10.57025m + uniform(-0.20m, 0.20m)
**.loRaNodes[118].**.initialZ = 645.7893m + uniform(-0.20m, 0.20m)

**.loRaNodes[119].**.initialX = 1400.434m + uniform(-0.20m, 0.20m)
**.loRaNodes[119].**.initialY = 9.86533m + uniform(-0.20m, 0.20m)
**.loRaNodes[119].**.initialZ = 622.3802m + uniform(-0.20m, 0.20m)

**.loRaNodes[120].**.initialX = 1430.578m + uniform(-0.20m, 0.20m)
**.loRaNodes[120].**.initialY = 19.09765m + uniform(-0.20m, 0.20m)
**.loRaNodes[120].**.initialZ = 589.7244m + uniform(-0.20m, 0.20m)

**.loRaNodes[121].**.initialX = 1431.373m + uniform(-0.20m, 0.20m)
**.loRaNodes[121].**.initialY = 15.26654m + uniform(-0.20m, 0.20m)
**.loRaNodes[121].**.initialZ = 552.7369m + uniform(-0.20m, 0.20m)

**.loRaNodes[122].**.initialX = 1461.677m + uniform(-0.20m, 0.20m)
**.loRaNodes[122].**.initialY = 8.465462m + uniform(-0.20m, 0.20m)
**.loRaNodes[122].**.initialZ = 512.6837m + uniform(-0.20m, 0.20m)

**.loRaNodes[123].**.initialX = 1476.709m + uniform(-0.20m, 0.20m)
**.loRaNodes[123].**.initialY = 8.143896m + uniform(-0.20m, 0.20m)
**.loRaNodes[123].**.initialZ = 498.2052m + uniform(-0.20m, 0.20m)

**.loRaNodes[124].**.initialX = 1521.728m + uniform(-0.20m, 0.20m)
**.loRaNodes[124].**.initialY = 9.648803m + uniform(-0.20m, 0.20m)
**.loRaNodes[124].**.initialZ = 458.4688m + uniform(-0.20m, 0.20m)

**.loRaNodes[125].**.initialX = 1537.158m + uniform(-0.20m, 0.20m)
**.loRaNodes[125].**.initialY = 9.055398m + uniform(-0.20m, 0.20m)
**.loRaNodes[125].**.initialZ = 425.4967m + uniform(-0.20m, 0.20m)

**.loRaNodes[126].**.initialX = 1552.828m + uniform(-0.20m, 0.20m)
**.loRaNodes[126].**.initialY = 10.07696m + uniform(-0.20m, 0.20m)
**.loRaNodes[126].**.initialZ = 381.4284m + uniform(-0.20m, 0.20m)

**.loRaNodes[127].**.initialX = 1568.776m + uniform(-0.20m, 0.20m)
**.loRaNodes[127].**.initialY = 7.754698m + uniform(-0.20m, 0.20m)
**.loRaNodes[127].**.initialZ = 324.4146m + uniform(-0.20m, 0.20m)

**.loRaNodes[128].**.initialX = 1569.055m + uniform(-0.20m, 0.20m)
**.loRaNodes[128].**.initialY = 4.746131m + uniform(-0.20m, 0.20m)
**.loRaNodes[128].**.initialZ = 311.4689m + uniform(-0.20m, 0.20m)

**.loRaNodes[129].**.initialX = 1629.347m + uniform(-0.20m, 0.20m)
**.loRaNodes[129].**.initialY = 4.283744m + uniform(-0.20m, 0.20m)
**.loRaNodes[129].**.initialZ = 246.1585m + uniform(-0.20m, 0.20m)

**.loRaNodes[130].**.initialX = 1732.111m + uniform(-0.20m, 0.20m)
**.loRaNodes[130].**.initialY = 4.568329m + uniform(-0.20m, 0.20m)
**.loRaNodes[130].**.initialZ = 259.4728m + uniform(-0.20m, 0.20m)

**.loRaNodes[131].**.initialX = 1791.17m + uniform(-0.20m, 0.20m)
**.loRaNodes[131].**.initialY = 4.251333m + uniform(-0.20m, 0.20m)
**.loRaNodes[131].**.initialZ = 251.494m + uniform(-0.20m, 0.20m)

**.loRaNodes[132].**.initialX = 1820.998m + uniform(-0.20m, 0.20m)
**.loRaNodes[132].**.initialY = 4.102349m + uniform(-0.20m, 0.20m)
**.loRaNodes[132].**.initialZ = 233.6345m + uniform(-0.20m, 0.20m)

**.loRaNodes[133].**.initialX = 1792.006m + uniform(-0.20m, 0.20m)
**.loRaNodes[133].**.initialY = 4.212977m + uniform(-0.20m, 0.20m)
**.loRaNodes[133].**.initialZ = 212.6572m + uniform(-0.20m, 0.20m)

**.loRaNodes[134].**.initialX = 1748.021m + uniform(-0.20m, 0.20m)
**.loRaNodes[134].**.initialY = 4.204553m + uniform(-0.20m, 0.20m)
**.loRaNodes[134].**.initialZ = 204.3086m + uniform(-0.20m, 0.20m)

**.loRaNodes[135].**.initialX = 1703.917m + uniform(-0.20m, 0.20m)
**.loRaNodes[135].**.initialY = 4.202425m + uniform(-0.20m, 0.20m)
**.loRaNodes[135].**.initialZ = 201.5084m + uniform(-0.20m, 0.20m)

**.loRaNodes[136].**.initialX = 1659.812m + uniform(-0.20m, 0.20m)
**.loRaNodes[136].**.initialY = 4.210189m + uniform(-0.20m, 0.20m)
**.loRaNodes[136].**.initialZ = 198.7084m + uniform(-0.20m, 0.20m)

**.loRaNodes[137].**.initialX = 1615.747m + uniform(-0.20m, 0.20m)
**.loRaNodes[137].**.initialY = 4.199909m + uniform(-0.20m, 0.20m)
**.loRaNodes[137].**.initialZ = 194.0593m + uniform(-0.20m, 0.20m)

**.loRaNodes[138].**.initialX = 1571.722m + uniform(-0.20m, 0.20m)
**.loRaNodes[138].**.initialY = 3.991868m + uniform(-0.20m, 0.20m)
**.loRaNodes[138].**.initialZ = 187.5611m + uniform(-0.20m, 0.20m)
